<?xml version="1.0" encoding="UTF-8"?>

<!-- generated on 2023-02-28 01:43:16.197215 by osmWebWizard.py v1_14_1+0000-f654d7b963e
<configuration>
    <end value="3600"/>
    <fringe-factor value="5.0"/>
    <fringe-start-attributes value="departSpeed=&quot;max&quot;"/>
    <min-distance value="600.0"/>
    <net-file value="C:\Users\mmatt\Sumo\2023-02-28-01-43-08\osm.net.xml"/>
    <period value="5.8234255835121"/>
    <route-file value="C:\Users\mmatt\Sumo\2023-02-28-01-43-08\osm.bus.rou.xml"/>
    <trip-attributes value="departLane=&quot;best&quot;"/>
    <output-trip-file value="C:\Users\mmatt\Sumo\2023-02-28-01-43-08\osm.bus.trips.xml"/>
    <prefix value="bus"/>
    <validate value="True"/>
    <vclass value="bus"/>
    <vehicle-class value="bus"/>
</configuration>
-->

<!-- generated on 2023-02-28 01:43:15 by Eclipse SUMO duarouter Version 1.14.1
<configuration xmlns:xsi="http://www.w3.org/2001/XMLSchema-instance" xsi:noNamespaceSchemaLocation="http://sumo.dlr.de/xsd/duarouterConfiguration.xsd">

    <input>
        <net-file value="C:\Users\mmatt\Sumo\2023-02-28-01-43-08\osm.net.xml"/>
        <route-files value="C:\Users\mmatt\Sumo\2023-02-28-01-43-08\osm.bus.trips.xml"/>
    </input>

    <output>
        <output-file value="C:\Users\mmatt\Sumo\2023-02-28-01-43-08\osm.bus.trips.xml.tmp"/>
        <alternatives-output value="NUL"/>
        <write-trips value="true"/>
    </output>

    <time>
        <begin value="0"/>
        <end value="3600"/>
    </time>

    <report>
        <no-warnings value="true"/>
        <ignore-errors value="true"/>
        <no-step-log value="true"/>
    </report>

</configuration>
-->

<routes xmlns:xsi="http://www.w3.org/2001/XMLSchema-instance" xsi:noNamespaceSchemaLocation="http://sumo.dlr.de/xsd/routes_file.xsd">
    <vType id="bus_bus" vClass="bus"/>
    <trip id="bus0" type="bus_bus" depart="0.00" departLane="best" from="5703240#9" to="-265509034#3"/>
    <trip id="bus1" type="bus_bus" depart="5.82" departLane="best" from="-851839772#1" to="-5709497#1"/>
    <trip id="bus2" type="bus_bus" depart="11.65" departLane="best" departSpeed="max" from="5706201" to="5703557#4"/>
    <trip id="bus3" type="bus_bus" depart="17.47" departLane="best" from="586390422#0" to="-5701891"/>
    <trip id="bus4" type="bus_bus" depart="23.29" departLane="best" from="-5710304#1" to="278903052"/>
    <trip id="bus5" type="bus_bus" depart="29.12" departLane="best" from="-265509034#0" to="-5706501"/>
    <trip id="bus6" type="bus_bus" depart="34.94" departLane="best" departSpeed="max" from="5703913#0" to="421155943#1"/>
    <trip id="bus7" type="bus_bus" depart="40.76" departLane="best" departSpeed="max" from="5709730#0" to="-226504865#2"/>
    <trip id="bus8" type="bus_bus" depart="46.59" departLane="best" from="5709497#1" to="5705020#1"/>
    <trip id="bus9" type="bus_bus" depart="52.41" departLane="best" from="219916732" to="-5705609#3"/>
    <trip id="bus10" type="bus_bus" depart="58.23" departLane="best" from="851839770#4" to="1082076288#0"/>
    <trip id="bus11" type="bus_bus" depart="64.06" departLane="best" from="-5701687#0" to="-5702782"/>
    <trip id="bus12" type="bus_bus" depart="69.88" departLane="best" from="5709497#3" to="5705834#1"/>
    <trip id="bus13" type="bus_bus" depart="75.70" departLane="best" from="529837175#0" to="885214720"/>
    <trip id="bus14" type="bus_bus" depart="81.53" departLane="best" from="226504865#6" to="421156314#6"/>
    <trip id="bus15" type="bus_bus" depart="87.35" departLane="best" from="5710051#1" to="5701687#1"/>
    <trip id="bus16" type="bus_bus" depart="93.17" departLane="best" from="571062161" to="541398094#1"/>
    <trip id="bus17" type="bus_bus" depart="99.00" departLane="best" departSpeed="max" from="-574742463" to="-851839772#5"/>
    <trip id="bus18" type="bus_bus" depart="104.82" departLane="best" from="-5702825#2" to="-798225402#6"/>
    <trip id="bus19" type="bus_bus" depart="110.65" departLane="best" from="5703240#4" to="219916423#0"/>
    <trip id="bus20" type="bus_bus" depart="116.47" departLane="best" from="226504865#1" to="-5707025#8"/>
    <trip id="bus21" type="bus_bus" depart="122.29" departLane="best" from="-798225402#6" to="681047400"/>
    <trip id="bus22" type="bus_bus" depart="128.12" departLane="best" departSpeed="max" from="5703913#0" to="5701396"/>
    <trip id="bus23" type="bus_bus" depart="133.94" departLane="best" from="-5706458#1" to="5705834#0"/>
    <trip id="bus24" type="bus_bus" depart="139.76" departLane="best" from="-5706137#1" to="219972312#0"/>
    <trip id="bus25" type="bus_bus" depart="145.59" departLane="best" from="959162127" to="5702825#0"/>
    <trip id="bus26" type="bus_bus" depart="151.41" departLane="best" departSpeed="max" from="552471238#0" to="5704239#3"/>
    <trip id="bus27" type="bus_bus" depart="157.23" departLane="best" departSpeed="max" from="-574742463" to="-266009765#7"/>
    <trip id="bus28" type="bus_bus" depart="163.06" departLane="best" from="1124086687#0" to="-798225401#10"/>
    <trip id="bus29" type="bus_bus" depart="168.88" departLane="best" from="-5710105#1" to="784990959#2"/>
    <trip id="bus30" type="bus_bus" depart="174.70" departLane="best" from="626535796#1" to="266017347#1"/>
    <trip id="bus31" type="bus_bus" depart="180.53" departLane="best" from="-798225401#9" to="-5710308"/>
    <trip id="bus32" type="bus_bus" depart="186.35" departLane="best" from="556607167#2" to="-696730631#0"/>
    <trip id="bus33" type="bus_bus" depart="192.17" departLane="best" from="5701698#3" to="587038042#5"/>
    <trip id="bus34" type="bus_bus" depart="198.00" departLane="best" from="265505846#2" to="-5708763#2"/>
    <trip id="bus35" type="bus_bus" depart="203.82" departLane="best" from="990248843-AddedOffRampEdge" to="326004473#0"/>
    <trip id="bus36" type="bus_bus" depart="209.64" departLane="best" departSpeed="max" from="-5701583#2" to="-276629019#4"/>
    <trip id="bus37" type="bus_bus" depart="215.47" departLane="best" from="-5703079#2" to="5701698#9"/>
    <trip id="bus38" type="bus_bus" depart="221.29" departLane="best" from="5708309#5" to="265505853#0"/>
    <trip id="bus39" type="bus_bus" depart="227.11" departLane="best" from="979574379#1" to="41166510#1"/>
    <trip id="bus40" type="bus_bus" depart="232.94" departLane="best" from="-226504865#9" to="5705703#4"/>
    <trip id="bus41" type="bus_bus" depart="238.76" departLane="best" departSpeed="max" from="5704794" to="421155644"/>
    <trip id="bus42" type="bus_bus" depart="244.58" departLane="best" from="-798225402#6" to="5702825#1"/>
    <trip id="bus43" type="bus_bus" depart="250.41" departLane="best" from="-5703079#4" to="265505860#6"/>
    <trip id="bus44" type="bus_bus" depart="256.23" departLane="best" from="581458380#4" to="-696730631#2"/>
    <trip id="bus45" type="bus_bus" depart="262.05" departLane="best" from="421155639" to="-5706137#1"/>
    <trip id="bus46" type="bus_bus" depart="267.88" departLane="best" from="626535794" to="581458380#2"/>
    <trip id="bus47" type="bus_bus" depart="273.70" departLane="best" departSpeed="max" from="5702782" to="-5705609#0"/>
    <trip id="bus48" type="bus_bus" depart="279.52" departLane="best" from="5707025#11" to="421155935#0"/>
    <trip id="bus49" type="bus_bus" depart="285.35" departLane="best" from="5707784#1" to="41166510#3"/>
    <trip id="bus50" type="bus_bus" depart="291.17" departLane="best" from="-226504865#0" to="1051744785#1"/>
    <trip id="bus51" type="bus_bus" depart="296.99" departLane="best" from="-265505860#2" to="661874993#1"/>
    <trip id="bus52" type="bus_bus" depart="302.82" departLane="best" from="581458830#1" to="5710105#3"/>
    <trip id="bus53" type="bus_bus" depart="308.64" departLane="best" from="1057070462" to="-38901295#5"/>
    <trip id="bus54" type="bus_bus" depart="314.46" departLane="best" from="581458830#0" to="798225401#11"/>
    <trip id="bus55" type="bus_bus" depart="320.29" departLane="best" departSpeed="max" from="-5701283#1" to="276375608"/>
    <trip id="bus56" type="bus_bus" depart="326.11" departLane="best" from="-41166510#4" to="5707025#8"/>
    <trip id="bus57" type="bus_bus" depart="331.94" departLane="best" from="5707025#5" to="-5703557#4"/>
    <trip id="bus58" type="bus_bus" depart="337.76" departLane="best" from="278903049" to="421156314#3"/>
    <trip id="bus59" type="bus_bus" depart="343.58" departLane="best" from="-798225401#9" to="581458380#4"/>
    <trip id="bus60" type="bus_bus" depart="349.41" departLane="best" from="529837175#4" to="5705834#1"/>
    <trip id="bus61" type="bus_bus" depart="355.23" departLane="best" from="-5709849#2" to="1032471955#2"/>
    <trip id="bus62" type="bus_bus" depart="361.05" departLane="best" from="979574379#0" to="5703067#4"/>
    <trip id="bus63" type="bus_bus" depart="366.88" departLane="best" from="266017347#0" to="350719243#0"/>
    <trip id="bus64" type="bus_bus" depart="372.70" departLane="best" from="-5703240#7" to="-5709497#4"/>
    <trip id="bus65" type="bus_bus" depart="378.52" departLane="best" from="-541398094#0" to="5702190#0"/>
    <trip id="bus66" type="bus_bus" depart="384.35" departLane="best" departSpeed="max" from="-574742463" to="617853238#2"/>
    <trip id="bus67" type="bus_bus" depart="390.17" departLane="best" from="571062160#1" to="-541398094#5"/>
    <trip id="bus68" type="bus_bus" depart="395.99" departLane="best" departSpeed="max" from="-581458379#1" to="5703279#2"/>
    <trip id="bus69" type="bus_bus" depart="401.82" departLane="best" departSpeed="max" from="-5710105#3" to="-5703914"/>
    <trip id="bus70" type="bus_bus" depart="407.64" departLane="best" from="729985823#1" to="529837175#6"/>
    <trip id="bus71" type="bus_bus" depart="413.46" departLane="best" departSpeed="max" from="276656615#0" to="5708735"/>
    <trip id="bus72" type="bus_bus" depart="419.29" departLane="best" from="5709497#4" to="-5706381"/>
    <trip id="bus73" type="bus_bus" depart="425.11" departLane="best" from="265509034#4" to="276092522#3"/>
    <trip id="bus74" type="bus_bus" depart="430.93" departLane="best" from="958141940" to="-5702821#1"/>
    <trip id="bus75" type="bus_bus" depart="436.76" departLane="best" from="265505852#0" to="1124086687#3"/>
    <trip id="bus76" type="bus_bus" depart="442.58" departLane="best" from="571062161" to="-5710353"/>
    <trip id="bus77" type="bus_bus" depart="448.40" departLane="best" from="-5709497#3" to="266009765#11"/>
    <trip id="bus78" type="bus_bus" depart="454.23" departLane="best" from="265509034#2" to="-839130172#0"/>
    <trip id="bus79" type="bus_bus" depart="460.05" departLane="best" from="-626535796#2" to="661874982#4"/>
    <trip id="bus80" type="bus_bus" depart="465.87" departLane="best" from="276150625" to="574742464"/>
    <trip id="bus81" type="bus_bus" depart="471.70" departLane="best" from="541398094#5" to="-276629019#8"/>
    <trip id="bus82" type="bus_bus" depart="477.52" departLane="best" from="864226826#2" to="661874982#7"/>
    <trip id="bus83" type="bus_bus" depart="483.34" departLane="best" departSpeed="max" from="5710308" to="-5705703#5"/>
    <trip id="bus84" type="bus_bus" depart="489.17" departLane="best" from="38901295#0" to="-5707269"/>
    <trip id="bus85" type="bus_bus" depart="494.99" departLane="best" from="265505851#2" to="-41166510#0"/>
    <trip id="bus86" type="bus_bus" depart="500.81" departLane="best" from="-798225402#4" to="5708735"/>
    <trip id="bus87" type="bus_bus" depart="506.64" departLane="best" from="276375604" to="265505856#0"/>
    <trip id="bus88" type="bus_bus" depart="512.46" departLane="best" from="851839770#4" to="990248842"/>
    <trip id="bus89" type="bus_bus" depart="518.28" departLane="best" departSpeed="max" from="552471238#0" to="5705703#19"/>
    <trip id="bus90" type="bus_bus" depart="524.11" departLane="best" from="-5705703#9" to="-864226827#4"/>
    <trip id="bus91" type="bus_bus" depart="529.93" departLane="best" departSpeed="max" from="864226826#0" to="541398094#3"/>
    <trip id="bus92" type="bus_bus" depart="535.76" departLane="best" from="-276629019#7" to="556607152"/>
    <trip id="bus93" type="bus_bus" depart="541.58" departLane="best" from="421155642" to="571402041#0"/>
    <trip id="bus94" type="bus_bus" depart="547.40" departLane="best" from="-5705833#1" to="851839772#1"/>
    <trip id="bus95" type="bus_bus" depart="553.23" departLane="best" departSpeed="max" from="5702235#0" to="5703557#2"/>
    <trip id="bus96" type="bus_bus" depart="559.05" departLane="best" from="-581458379#0" to="-5703240#6"/>
    <trip id="bus97" type="bus_bus" depart="564.87" departLane="best" from="581521133#0" to="-5710308"/>
    <trip id="bus98" type="bus_bus" depart="570.70" departLane="best" from="5702190#1" to="5701687#2"/>
    <trip id="bus99" type="bus_bus" depart="576.52" departLane="best" from="265505867" to="547157847#0"/>
    <trip id="bus100" type="bus_bus" depart="582.34" departLane="best" from="-5710052#0" to="5705703#15"/>
    <trip id="bus101" type="bus_bus" depart="588.17" departLane="best" departSpeed="max" from="-581458379#1" to="226504865#16"/>
    <trip id="bus102" type="bus_bus" depart="593.99" departLane="best" from="5704474" to="-885214718#0"/>
    <trip id="bus103" type="bus_bus" depart="599.81" departLane="best" from="1124086687#2" to="5706959#4"/>
    <trip id="bus104" type="bus_bus" depart="605.64" departLane="best" from="-541398094#2" to="266017347#1"/>
    <trip id="bus105" type="bus_bus" depart="611.46" departLane="best" from="990248843-AddedOnRampEdge" to="990248842"/>
    <trip id="bus106" type="bus_bus" depart="617.28" departLane="best" from="-541398094#3" to="-5707269"/>
    <trip id="bus107" type="bus_bus" depart="623.11" departLane="best" from="-798225402#4" to="681047000"/>
    <trip id="bus108" type="bus_bus" depart="628.93" departLane="best" from="226504865#0" to="-5705703#10"/>
    <trip id="bus109" type="bus_bus" depart="634.75" departLane="best" from="5710052#5" to="5705452#1"/>
    <trip id="bus110" type="bus_bus" depart="640.58" departLane="best" departSpeed="max" from="5702782" to="979574371#2"/>
    <trip id="bus111" type="bus_bus" depart="646.40" departLane="best" from="5703913#4" to="-226504865#4"/>
    <trip id="bus112" type="bus_bus" depart="652.22" departLane="best" departSpeed="max" from="5704239#0" to="696730631#2"/>
    <trip id="bus113" type="bus_bus" depart="658.05" departLane="best" from="-5703067#4" to="421156314#7"/>
    <trip id="bus114" type="bus_bus" depart="663.87" departLane="best" from="-851839770#5" to="5701283#1"/>
    <trip id="bus115" type="bus_bus" depart="669.69" departLane="best" from="5705805" to="-5707025#10"/>
    <trip id="bus116" type="bus_bus" depart="675.52" departLane="best" from="5703240#2" to="-784990959#0"/>
    <trip id="bus117" type="bus_bus" depart="681.34" departLane="best" from="38901295#4" to="617853238#2"/>
    <trip id="bus118" type="bus_bus" depart="687.16" departLane="best" from="5710304#5" to="-5702235#1"/>
    <trip id="bus119" type="bus_bus" depart="692.99" departLane="best" from="265509034#4" to="-798225402#4"/>
    <trip id="bus120" type="bus_bus" depart="698.81" departLane="best" from="-226504865#15" to="5708309#10"/>
    <trip id="bus121" type="bus_bus" depart="704.63" departLane="best" from="5703240#6" to="-676405887#1"/>
    <trip id="bus122" type="bus_bus" depart="710.46" departLane="best" from="5706329#2" to="421156314#5"/>
    <trip id="bus123" type="bus_bus" depart="716.28" departLane="best" from="266009765#4" to="-226504865#6"/>
    <trip id="bus124" type="bus_bus" depart="722.10" departLane="best" from="-541399250#0" to="581458830#7"/>
    <trip id="bus125" type="bus_bus" depart="727.93" departLane="best" from="587038042#8" to="421155944"/>
    <trip id="bus126" type="bus_bus" depart="733.75" departLane="best" from="5710072" to="541399250#2"/>
    <trip id="bus127" type="bus_bus" depart="739.58" departLane="best" from="-5705703#17" to="-5703557#3"/>
    <trip id="bus128" type="bus_bus" depart="745.40" departLane="best" from="5708763#0" to="574742463"/>
    <trip id="bus129" type="bus_bus" depart="751.22" departLane="best" from="587038042#2" to="-5707025#9"/>
    <trip id="bus130" type="bus_bus" depart="757.05" departLane="best" from="5707784#3" to="581458830#7"/>
    <trip id="bus131" type="bus_bus" depart="762.87" departLane="best" from="265505856#2" to="5701698#1"/>
    <trip id="bus132" type="bus_bus" depart="768.69" departLane="best" from="-5705703#9" to="676405887#0"/>
    <trip id="bus133" type="bus_bus" depart="774.52" departLane="best" from="571402041#1" to="911137968#2"/>
    <trip id="bus134" type="bus_bus" depart="780.34" departLane="best" departSpeed="max" from="5709730#0" to="581458830#4"/>
    <trip id="bus135" type="bus_bus" depart="786.16" departLane="best" departSpeed="max" from="-265505860#6" to="5706137#5"/>
    <trip id="bus136" type="bus_bus" depart="791.99" departLane="best" from="219916422#12" to="681046338"/>
    <trip id="bus137" type="bus_bus" depart="797.81" departLane="best" from="5709073" to="574742464"/>
    <trip id="bus138" type="bus_bus" depart="803.63" departLane="best" departSpeed="max" from="5709730#0" to="-784990961"/>
    <trip id="bus139" type="bus_bus" depart="809.46" departLane="best" from="5708309#18" to="-5703079#0"/>
    <trip id="bus140" type="bus_bus" depart="815.28" departLane="best" from="581458379#0" to="574742463"/>
    <trip id="bus141" type="bus_bus" depart="821.10" departLane="best" departSpeed="max" from="-5710304#7" to="5709849#3"/>
    <trip id="bus142" type="bus_bus" depart="826.93" departLane="best" from="276629019#2" to="1013096863"/>
    <trip id="bus143" type="bus_bus" depart="832.75" departLane="best" departSpeed="max" from="-265505860#6" to="-5706458#1"/>
    <trip id="bus144" type="bus_bus" depart="838.57" departLane="best" from="182690847#7" to="574742464"/>
    <trip id="bus145" type="bus_bus" depart="844.40" departLane="best" departSpeed="max" from="864226826#0" to="-839130172#0"/>
    <trip id="bus146" type="bus_bus" depart="850.22" departLane="best" from="5703545#1" to="226504865#4"/>
    <trip id="bus147" type="bus_bus" depart="856.04" departLane="best" from="911137968#3" to="421155642"/>
    <trip id="bus148" type="bus_bus" depart="861.87" departLane="best" from="784990959#2" to="-5703240#13"/>
    <trip id="bus149" type="bus_bus" depart="867.69" departLane="best" from="851839772#3" to="-784990959#2"/>
    <trip id="bus150" type="bus_bus" depart="873.51" departLane="best" from="-5703079#0" to="265505860#6"/>
    <trip id="bus151" type="bus_bus" depart="879.34" departLane="best" from="5706137#4" to="1032471955#2"/>
    <trip id="bus152" type="bus_bus" depart="885.16" departLane="best" from="5702770#2" to="350677691"/>
    <trip id="bus153" type="bus_bus" depart="890.98" departLane="best" from="226504942#2" to="541398094#0"/>
    <trip id="bus154" type="bus_bus" depart="896.81" departLane="best" from="-226504865#10" to="661874982#7"/>
    <trip id="bus155" type="bus_bus" depart="902.63" departLane="best" from="5706329#3" to="5703279#2"/>
    <trip id="bus156" type="bus_bus" depart="908.45" departLane="best" from="5704239#1" to="1059815508#0"/>
    <trip id="bus157" type="bus_bus" depart="914.28" departLane="best" from="1068560484" to="5710358#1"/>
    <trip id="bus158" type="bus_bus" depart="920.10" departLane="best" from="5705833#0" to="-885214718#1"/>
    <trip id="bus159" type="bus_bus" depart="925.92" departLane="best" from="1059815509" to="226504942#3"/>
    <trip id="bus160" type="bus_bus" depart="931.75" departLane="best" from="265505852#0" to="-864226827#2"/>
    <trip id="bus161" type="bus_bus" depart="937.57" departLane="best" departSpeed="max" from="-5703279#2" to="265505851#4"/>
    <trip id="bus162" type="bus_bus" depart="943.39" departLane="best" from="784990959#3" to="5703810"/>
    <trip id="bus163" type="bus_bus" depart="949.22" departLane="best" from="587038042#7" to="5701583#0"/>
    <trip id="bus164" type="bus_bus" depart="955.04" departLane="best" from="1051744784#0" to="421156313#1"/>
    <trip id="bus165" type="bus_bus" depart="960.87" departLane="best" from="266009765#7" to="541398094#4"/>
    <trip id="bus166" type="bus_bus" depart="966.69" departLane="best" departSpeed="max" from="5703914" to="276092522#3"/>
    <trip id="bus167" type="bus_bus" depart="972.51" departLane="best" from="276092522#2" to="-5707269"/>
    <trip id="bus168" type="bus_bus" depart="978.34" departLane="best" from="5708763#0" to="-5705703#9"/>
    <trip id="bus169" type="bus_bus" depart="984.16" departLane="best" departSpeed="max" from="-5701283#1" to="350677695"/>
    <trip id="bus170" type="bus_bus" depart="989.98" departLane="best" from="5703240#16" to="1068560483"/>
    <trip id="bus171" type="bus_bus" depart="995.81" departLane="best" from="5709849#1" to="5706959#4"/>
    <trip id="bus172" type="bus_bus" depart="1001.63" departLane="best" from="5704518#0" to="-5709497#4"/>
    <trip id="bus174" type="bus_bus" depart="1013.28" departLane="best" departSpeed="max" from="-617887419" to="276152024#1"/>
    <trip id="bus175" type="bus_bus" depart="1019.10" departLane="best" from="265505861#1" to="5701704"/>
    <trip id="bus176" type="bus_bus" depart="1024.92" departLane="best" departSpeed="max" from="-5709497#6" to="5704733"/>
    <trip id="bus177" type="bus_bus" depart="1030.75" departLane="best" from="41166510#4" to="-5710304#5"/>
    <trip id="bus178" type="bus_bus" depart="1036.57" departLane="best" departSpeed="max" from="5706499#0" to="5708309#1"/>
    <trip id="bus179" type="bus_bus" depart="1042.39" departLane="best" from="-5703067#4" to="265505856#2"/>
    <trip id="bus180" type="bus_bus" depart="1048.22" departLane="best" from="-5707025#3" to="851839770#5"/>
    <trip id="bus181" type="bus_bus" depart="1054.04" departLane="best" from="421156314#5" to="-276629019#8"/>
    <trip id="bus183" type="bus_bus" depart="1065.69" departLane="best" from="276375611#0" to="5709497#6"/>
    <trip id="bus184" type="bus_bus" depart="1071.51" departLane="best" from="5704239#5" to="979574379#0"/>
    <trip id="bus185" type="bus_bus" depart="1077.33" departLane="best" departSpeed="max" from="5702235#0" to="798225401#9"/>
    <trip id="bus186" type="bus_bus" depart="1083.16" departLane="best" from="581784552" to="5701500#0"/>
    <trip id="bus187" type="bus_bus" depart="1088.98" departLane="best" from="5705813#1" to="278903052"/>
    <trip id="bus188" type="bus_bus" depart="1094.80" departLane="best" from="5710052#1" to="421156313#1"/>
    <trip id="bus189" type="bus_bus" depart="1100.63" departLane="best" departSpeed="max" from="586820548#0" to="5706458#1"/>
    <trip id="bus190" type="bus_bus" depart="1106.45" departLane="best" from="276656615#1" to="-661874981"/>
    <trip id="bus191" type="bus_bus" depart="1112.27" departLane="best" departSpeed="max" from="-617887419" to="5702770#4"/>
    <trip id="bus192" type="bus_bus" depart="1118.10" departLane="best" from="5707025#5" to="38901138-AddedOffRampEdge"/>
    <trip id="bus193" type="bus_bus" depart="1123.92" departLane="best" from="5703079#2" to="-798225402#1"/>
    <trip id="bus194" type="bus_bus" depart="1129.74" departLane="best" from="-5701200#1" to="-851839770#8"/>
    <trip id="bus195" type="bus_bus" depart="1135.57" departLane="best" from="-851839770#4" to="1051744784#0"/>
    <trip id="bus196" type="bus_bus" depart="1141.39" departLane="best" from="529837175#5" to="-5704794"/>
    <trip id="bus197" type="bus_bus" depart="1147.21" departLane="best" from="5705703#12" to="-469587911"/>
    <trip id="bus198" type="bus_bus" depart="1153.04" departLane="best" from="265505858" to="421155940"/>
    <trip id="bus199" type="bus_bus" depart="1158.86" departLane="best" from="265509034#0" to="617853238#2"/>
    <trip id="bus200" type="bus_bus" depart="1164.69" departLane="best" from="5701698#2" to="5704731"/>
    <trip id="bus201" type="bus_bus" depart="1170.51" departLane="best" departSpeed="max" from="571062160#0" to="5707453"/>
    <trip id="bus202" type="bus_bus" depart="1176.33" departLane="best" from="226504865#8" to="-226504865#18"/>
    <trip id="bus203" type="bus_bus" depart="1182.16" departLane="best" from="219972311#8" to="5706959#4"/>
    <trip id="bus204" type="bus_bus" depart="1187.98" departLane="best" departSpeed="max" from="5710358#0" to="839130172#0"/>
    <trip id="bus205" type="bus_bus" depart="1193.80" departLane="best" from="265505866#2" to="5706959#0"/>
    <trip id="bus206" type="bus_bus" depart="1199.63" departLane="best" from="-5710304#4" to="-5708763#2"/>
    <trip id="bus207" type="bus_bus" depart="1205.45" departLane="best" from="266017339#2" to="-266009765#11"/>
    <trip id="bus208" type="bus_bus" depart="1211.27" departLane="best" from="219916422#5" to="5703913#3"/>
    <trip id="bus209" type="bus_bus" depart="1217.10" departLane="best" from="265505855" to="-5705703#3"/>
    <trip id="bus210" type="bus_bus" depart="1222.92" departLane="best" from="5703067#2" to="-266009765#1"/>
    <trip id="bus211" type="bus_bus" depart="1228.74" departLane="best" departSpeed="max" from="226504947" to="502778877#5"/>
    <trip id="bus212" type="bus_bus" depart="1234.57" departLane="best" from="-265509034#1" to="5702825#4"/>
    <trip id="bus213" type="bus_bus" depart="1240.39" departLane="best" from="-5704733" to="266017348#1"/>
    <trip id="bus214" type="bus_bus" depart="1246.21" departLane="best" from="-276375608" to="219972312#0"/>
    <trip id="bus215" type="bus_bus" depart="1252.04" departLane="best" from="-5710105#2" to="1059266680#0"/>
    <trip id="bus216" type="bus_bus" depart="1257.86" departLane="best" from="5707025#0" to="219972312#0"/>
    <trip id="bus217" type="bus_bus" depart="1263.68" departLane="best" from="5706499#1" to="5710105#3"/>
    <trip id="bus218" type="bus_bus" depart="1269.51" departLane="best" from="-661874981" to="-5701687#1"/>
    <trip id="bus219" type="bus_bus" depart="1275.33" departLane="best" from="-265505860#2" to="421155935#0"/>
    <trip id="bus220" type="bus_bus" depart="1281.15" departLane="best" departSpeed="max" from="5703913#0" to="5708309#6"/>
    <trip id="bus221" type="bus_bus" depart="1286.98" departLane="best" from="5703913#1" to="5707025#0"/>
    <trip id="bus222" type="bus_bus" depart="1292.80" departLane="best" from="798225401#9" to="-5706501"/>
    <trip id="bus223" type="bus_bus" depart="1298.62" departLane="best" from="-265505860#3" to="-5705609#0"/>
    <trip id="bus224" type="bus_bus" depart="1304.45" departLane="best" from="-5706137#7" to="5701283#1"/>
    <trip id="bus225" type="bus_bus" depart="1310.27" departLane="best" departSpeed="max" from="5706499#0" to="-5703240#12"/>
    <trip id="bus226" type="bus_bus" depart="1316.09" departLane="best" from="-5703079#0" to="-265509034#4"/>
    <trip id="bus227" type="bus_bus" depart="1321.92" departLane="best" from="1059815512#0" to="5703810"/>
    <trip id="bus228" type="bus_bus" depart="1327.74" departLane="best" from="851839770#5" to="226504865#17"/>
    <trip id="bus229" type="bus_bus" depart="1333.56" departLane="best" from="5705703#7" to="-5701201#1"/>
    <trip id="bus230" type="bus_bus" depart="1339.39" departLane="best" from="5705388#4" to="5701698#9"/>
    <trip id="bus231" type="bus_bus" depart="1345.21" departLane="best" from="-5703240#7" to="958141941"/>
    <trip id="bus232" type="bus_bus" depart="1351.03" departLane="best" from="5708309#11" to="182690847#3"/>
    <trip id="bus233" type="bus_bus" depart="1356.86" departLane="best" from="266009765#5" to="219972311#13"/>
    <trip id="bus234" type="bus_bus" depart="1362.68" departLane="best" from="421155935#0" to="126145159"/>
    <trip id="bus235" type="bus_bus" depart="1368.51" departLane="best" from="5703240#4" to="5710078#1"/>
    <trip id="bus236" type="bus_bus" depart="1374.33" departLane="best" from="5705703#13" to="265505860#6"/>
    <trip id="bus237" type="bus_bus" depart="1380.15" departLane="best" departSpeed="max" from="5706201" to="864226826#2"/>
    <trip id="bus238" type="bus_bus" depart="1385.98" departLane="best" from="-851839770#2" to="5709730#5"/>
    <trip id="bus239" type="bus_bus" depart="1391.80" departLane="best" from="529837175#2" to="276295217"/>
    <trip id="bus240" type="bus_bus" depart="1397.62" departLane="best" from="266017339#1" to="5705834#2"/>
    <trip id="bus241" type="bus_bus" depart="1403.45" departLane="best" from="-839130172#2" to="571062166#0"/>
    <trip id="bus242" type="bus_bus" depart="1409.27" departLane="best" from="5710052#1" to="-5701891"/>
    <trip id="bus243" type="bus_bus" depart="1415.09" departLane="best" from="581458830#5" to="-5710304#5"/>
    <trip id="bus244" type="bus_bus" depart="1420.92" departLane="best" from="276629019#8" to="5701420"/>
    <trip id="bus245" type="bus_bus" depart="1426.74" departLane="best" from="226504865#6" to="-266009765#11"/>
    <trip id="bus246" type="bus_bus" depart="1432.56" departLane="best" from="5710353" to="-5706137#6"/>
    <trip id="bus247" type="bus_bus" depart="1438.39" departLane="best" from="-5710105#2" to="5709497#0"/>
    <trip id="bus248" type="bus_bus" depart="1444.21" departLane="best" from="219972311#0" to="581458830#3"/>
    <trip id="bus249" type="bus_bus" depart="1450.03" departLane="best" from="5705609#1" to="-798225402#4"/>
    <trip id="bus250" type="bus_bus" depart="1455.86" departLane="best" from="-226504865#7" to="798225401#6"/>
    <trip id="bus251" type="bus_bus" depart="1461.68" departLane="best" from="38901295#4" to="5707025#5"/>
    <trip id="bus252" type="bus_bus" depart="1467.50" departLane="best" from="5705388#4" to="5702944#1"/>
    <trip id="bus253" type="bus_bus" depart="1473.33" departLane="best" from="41166510#0" to="5709250#2"/>
    <trip id="bus254" type="bus_bus" depart="1479.15" departLane="best" from="-5701687#0" to="-5708985"/>
    <trip id="bus255" type="bus_bus" depart="1484.97" departLane="best" from="5705452#1" to="1013096865#1"/>
    <trip id="bus256" type="bus_bus" depart="1490.80" departLane="best" from="5701687#2" to="276150628"/>