<?xml version="1.0" encoding="UTF-8"?>

<!-- generated on 2023-02-28 01:43:13.330966 by osmWebWizard.py v1_14_1+0000-f654d7b963e
<configuration>
    <allow-fringe.min-length value="1000.0"/>
    <end value="3600"/>
    <fringe-factor value="5.0"/>
    <fringe-start-attributes value="departSpeed=&quot;max&quot;"/>
    <lanes value="True"/>
    <min-distance value="300.0"/>
    <net-file value="C:\Users\mmatt\Sumo\2023-02-28-01-43-08\osm.net.xml"/>
    <period value="1.9411418611707"/>
    <route-file value="C:\Users\mmatt\Sumo\2023-02-28-01-43-08\osm.passenger.rou.xml"/>
    <trip-attributes value="departLane=&quot;best&quot;"/>
    <output-trip-file value="C:\Users\mmatt\Sumo\2023-02-28-01-43-08\osm.passenger.trips.xml"/>
    <prefix value="veh"/>
    <validate value="True"/>
    <vehicle-class value="passenger"/>
</configuration>
-->

<!-- generated on 2023-02-28 01:43:12 by Eclipse SUMO duarouter Version 1.14.1
<configuration xmlns:xsi="http://www.w3.org/2001/XMLSchema-instance" xsi:noNamespaceSchemaLocation="http://sumo.dlr.de/xsd/duarouterConfiguration.xsd">

    <input>
        <net-file value="C:\Users\mmatt\Sumo\2023-02-28-01-43-08\osm.net.xml"/>
        <route-files value="C:\Users\mmatt\Sumo\2023-02-28-01-43-08\osm.passenger.trips.xml"/>
    </input>

    <output>
        <output-file value="C:\Users\mmatt\Sumo\2023-02-28-01-43-08\osm.passenger.trips.xml.tmp"/>
        <alternatives-output value="NUL"/>
        <write-trips value="true"/>
    </output>

    <time>
        <begin value="0"/>
        <end value="3600"/>
    </time>

    <report>
        <no-warnings value="true"/>
        <ignore-errors value="true"/>
        <no-step-log value="true"/>
    </report>

</configuration>
-->

<routes xmlns:xsi="http://www.w3.org/2001/XMLSchema-instance" xsi:noNamespaceSchemaLocation="http://sumo.dlr.de/xsd/routes_file.xsd">
    <vType id="veh_passenger" vClass="passenger"/>
    <trip id="veh0" type="veh_passenger" depart="0.00" departLane="best" from="5703240#16" to="-266009765#0"/>
    <trip id="veh1" type="veh_passenger" depart="1.94" departLane="best" from="1051744784#5" to="-798225401#11"/>
    <trip id="veh2" type="veh_passenger" depart="3.88" departLane="best" from="5706329#3" to="5703557#4"/>
    <trip id="veh3" type="veh_passenger" depart="5.82" departLane="best" from="587038042#7" to="-5702825#4"/>
    <trip id="veh4" type="veh_passenger" depart="7.76" departLane="best" from="-798225401#5" to="350677694#0"/>
    <trip id="veh5" type="veh_passenger" depart="9.71" departLane="best" from="-265509034#4" to="-5710114#0"/>
    <trip id="veh6" type="veh_passenger" depart="11.65" departLane="best" from="5703557#3" to="421155937#0"/>
    <trip id="veh7" type="veh_passenger" depart="13.59" departLane="best" from="-798225401#9" to="529837176#2"/>
    <trip id="veh8" type="veh_passenger" depart="15.53" departLane="best" from="5710052#1" to="-226504865#4"/>
    <trip id="veh9" type="veh_passenger" depart="17.47" departLane="best" departSpeed="max" from="5710051#0" to="5704518#4"/>
    <trip id="veh10" type="veh_passenger" depart="19.41" departLane="best" from="219972312#7" to="-5706201"/>
    <trip id="veh11" type="veh_passenger" depart="21.35" departLane="best" from="864226827#5" to="219916422#10"/>
    <trip id="veh12" type="veh_passenger" depart="23.29" departLane="best" from="-5703079#1" to="-5703240#12"/>
    <trip id="veh13" type="veh_passenger" depart="25.23" departLane="best" departSpeed="max" from="574767493" to="556607167#2"/>
    <trip id="veh14" type="veh_passenger" depart="27.18" departLane="best" departSpeed="max" from="5710051#0" to="5705834#2"/>
    <trip id="veh15" type="veh_passenger" depart="29.12" departLane="best" from="502738505#1" to="959162127"/>
    <trip id="veh16" type="veh_passenger" depart="31.06" departLane="best" from="226504946#0" to="421155945#0"/>
    <trip id="veh17" type="veh_passenger" depart="33.00" departLane="best" departSpeed="max" from="5710358#0" to="5701283#1"/>
    <trip id="veh18" type="veh_passenger" depart="34.94" departLane="best" from="581458830#4" to="529837175#2"/>
    <trip id="veh19" type="veh_passenger" depart="36.88" departLane="best" from="5705609#4" to="-276656611#1"/>
    <trip id="veh20" type="veh_passenger" depart="38.82" departLane="best" from="-851839770#8" to="1051744784#2"/>
    <trip id="veh21" type="veh_passenger" depart="40.76" departLane="best" from="-5701687#1" to="-839130172#2"/>
    <trip id="veh22" type="veh_passenger" depart="42.71" departLane="best" from="-5703240#5" to="1034737796"/>
    <trip id="veh23" type="veh_passenger" depart="44.65" departLane="best" from="5703240#1" to="219972312#5"/>
    <trip id="veh24" type="veh_passenger" depart="46.59" departLane="best" from="226504942#0" to="-5710358#0"/>
    <trip id="veh25" type="veh_passenger" depart="48.53" departLane="best" from="1051744784#1" to="839130172#0"/>
    <trip id="veh26" type="veh_passenger" depart="50.47" departLane="best" from="5703548#1" to="5701199#2"/>
    <trip id="veh27" type="veh_passenger" depart="52.41" departLane="best" departSpeed="max" from="-5709497#6" to="226504865#1"/>
    <trip id="veh28" type="veh_passenger" depart="54.35" departLane="best" from="990248843" to="5702190#1"/>
    <trip id="veh29" type="veh_passenger" depart="56.29" departLane="best" from="529837175#5" to="5704239#5"/>
    <trip id="veh30" type="veh_passenger" depart="58.23" departLane="best" from="571062166#1" to="5708763#3"/>
    <trip id="veh31" type="veh_passenger" depart="60.18" departLane="best" from="-851839772#1" to="-266017339#0"/>
    <trip id="veh32" type="veh_passenger" depart="62.12" departLane="best" from="219916422#14" to="1032471955#2"/>
    <trip id="veh33" type="veh_passenger" depart="64.06" departLane="best" from="-661874993#1" to="851839772#1"/>
    <trip id="veh34" type="veh_passenger" depart="66.00" departLane="best" from="586390422#2" to="1068108164"/>
    <trip id="veh35" type="veh_passenger" depart="67.94" departLane="best" from="5703913#2" to="226504945#0"/>
    <trip id="veh36" type="veh_passenger" depart="69.88" departLane="best" from="676405887#0" to="276092522#2"/>
    <trip id="veh37" type="veh_passenger" depart="71.82" departLane="best" from="1051744782" to="-864226827#4"/>
    <trip id="veh38" type="veh_passenger" depart="73.76" departLane="best" from="529837175#7" to="1017728623#0"/>
    <trip id="veh40" type="veh_passenger" depart="77.65" departLane="best" from="265505860#0" to="-696730631#2"/>
    <trip id="veh41" type="veh_passenger" depart="79.59" departLane="best" from="990253489#0" to="350719243#1"/>
    <trip id="veh42" type="veh_passenger" depart="81.53" departLane="best" from="-5703067#4" to="-38901295#0"/>
    <trip id="veh43" type="veh_passenger" depart="83.47" departLane="best" from="-5703557#1" to="5701583#0"/>
    <trip id="veh44" type="veh_passenger" depart="85.41" departLane="best" departSpeed="max" from="5709730#0" to="265505860#6"/>
    <trip id="veh45" type="veh_passenger" depart="87.35" departLane="best" from="-541398094#3" to="226504865#16"/>
    <trip id="veh46" type="veh_passenger" depart="89.29" departLane="best" from="990253489#0" to="421155639"/>
    <trip id="veh47" type="veh_passenger" depart="91.23" departLane="best" departSpeed="max" from="959127486" to="581458830#5"/>
    <trip id="veh48" type="veh_passenger" depart="93.17" departLane="best" from="-226504866#2" to="5705703#4"/>
    <trip id="veh49" type="veh_passenger" depart="95.12" departLane="best" from="5704518#5" to="421155644"/>
    <trip id="veh50" type="veh_passenger" depart="97.06" departLane="best" from="1051744784#0" to="5702235#1"/>
    <trip id="veh51" type="veh_passenger" depart="99.00" departLane="best" from="-5703557#4" to="265509034#2"/>
    <trip id="veh52" type="veh_passenger" depart="100.94" departLane="best" from="276629019#7" to="905108317"/>
    <trip id="veh53" type="veh_passenger" depart="102.88" departLane="best" from="586390422#2" to="1017728623#2"/>
    <trip id="veh54" type="veh_passenger" depart="104.82" departLane="best" from="421155640" to="-5707269"/>
    <trip id="veh55" type="veh_passenger" depart="106.76" departLane="best" from="661874982#4" to="586390422#0"/>
    <trip id="veh56" type="veh_passenger" depart="108.70" departLane="best" from="1124086687#4" to="5701774"/>
    <trip id="veh57" type="veh_passenger" depart="110.65" departLane="best" departSpeed="max" from="5702235#0" to="-5706137#7"/>
    <trip id="veh58" type="veh_passenger" depart="112.59" departLane="best" departSpeed="max" from="5707269" to="421155645"/>
    <trip id="veh59" type="veh_passenger" depart="114.53" departLane="best" from="5708309#6" to="421155640"/>
    <trip id="veh60" type="veh_passenger" depart="116.47" departLane="best" from="-226504865#0" to="126145159"/>
    <trip id="veh61" type="veh_passenger" depart="118.41" departLane="best" departSpeed="max" from="-265505860#6" to="784990960"/>
    <trip id="veh62" type="veh_passenger" depart="120.35" departLane="best" departSpeed="max" from="586820548#0" to="571062166#0"/>
    <trip id="veh63" type="veh_passenger" depart="122.29" departLane="best" from="182690847#2" to="-469587911"/>
    <trip id="veh64" type="veh_passenger" depart="124.23" departLane="best" departSpeed="max" from="586820548#0" to="864226826#3"/>
    <trip id="veh65" type="veh_passenger" depart="126.17" departLane="best" from="-5702825#2" to="276656611#1"/>
    <trip id="veh66" type="veh_passenger" depart="128.12" departLane="best" from="-5701201#2" to="5707784#3"/>
    <trip id="veh67" type="veh_passenger" depart="130.06" departLane="best" from="5707453" to="-5705609#0"/>
    <trip id="veh68" type="veh_passenger" depart="132.00" departLane="best" from="38901138-AddedOffRampEdge" to="421155943#1"/>
    <trip id="veh69" type="veh_passenger" depart="133.94" departLane="best" from="266009765#9" to="-617853238#0"/>
    <trip id="veh70" type="veh_passenger" depart="135.88" departLane="best" departSpeed="max" from="502778877#0" to="5706136#0"/>
    <trip id="veh71" type="veh_passenger" depart="137.82" departLane="best" departSpeed="max" from="-617853238#2" to="1059815511"/>
    <trip id="veh72" type="veh_passenger" depart="139.76" departLane="best" from="990248843-AddedOnRampEdge" to="5702825#5"/>
    <trip id="veh73" type="veh_passenger" depart="141.70" departLane="best" departSpeed="max" from="276152024#0" to="38901138-AddedOnRampEdge"/>
    <trip id="veh74" type="veh_passenger" depart="143.64" departLane="best" from="-5705703#12" to="-798225401#5"/>
    <trip id="veh75" type="veh_passenger" depart="145.59" departLane="best" from="219972312#5" to="529837176#0"/>
    <trip id="veh76" type="veh_passenger" depart="147.53" departLane="best" from="-851839772#3" to="-784990959#1"/>
    <trip id="veh77" type="veh_passenger" depart="149.47" departLane="best" departSpeed="max" from="-5701283#1" to="5701698#1"/>
    <trip id="veh78" type="veh_passenger" depart="151.41" departLane="best" from="-885214719" to="5703279#1"/>
    <trip id="veh79" type="veh_passenger" depart="153.35" departLane="best" from="-784990959#1" to="-5705703#10"/>
    <trip id="veh80" type="veh_passenger" depart="155.29" departLane="best" from="798225401#11" to="502778877#5"/>
    <trip id="veh81" type="veh_passenger" depart="157.23" departLane="best" from="38901138" to="5709497#0"/>
    <trip id="veh82" type="veh_passenger" depart="159.17" departLane="best" departSpeed="max" from="5710051#0" to="-5709849#3"/>
    <trip id="veh83" type="veh_passenger" depart="161.11" departLane="best" from="-5703240#12" to="265505867"/>
    <trip id="veh84" type="veh_passenger" depart="163.06" departLane="best" departSpeed="max" from="266017339#0" to="276150630"/>
    <trip id="veh85" type="veh_passenger" depart="165.00" departLane="best" from="5706196" to="5703545#2"/>
    <trip id="veh86" type="veh_passenger" depart="166.94" departLane="best" from="265505861#0" to="219916422#3"/>
    <trip id="veh87" type="veh_passenger" depart="168.88" departLane="best" from="581458830#4" to="-864226828#1"/>
    <trip id="veh88" type="veh_passenger" depart="170.82" departLane="best" departSpeed="max" from="-574742463" to="266017347#1"/>
    <trip id="veh89" type="veh_passenger" depart="172.76" departLane="best" from="266009765#6" to="1034737796"/>
    <trip id="veh90" type="veh_passenger" depart="174.70" departLane="best" from="1013096865#1" to="696730631#0"/>
    <trip id="veh91" type="veh_passenger" depart="176.64" departLane="best" from="276152024#4" to="581458830#6"/>
    <trip id="veh92" type="veh_passenger" depart="178.59" departLane="best" from="529837175#1" to="-38901295#5"/>
    <trip id="veh93" type="veh_passenger" depart="180.53" departLane="best" from="990253489#1" to="574703082"/>
    <trip id="veh94" type="veh_passenger" depart="182.47" departLane="best" departSpeed="max" from="959127486" to="784990958"/>
    <trip id="veh95" type="veh_passenger" depart="184.41" departLane="best" departSpeed="max" from="574767493" to="-5706501"/>
    <trip id="veh96" type="veh_passenger" depart="186.35" departLane="best" from="41166510#3" to="-626535796#1"/>
    <trip id="veh97" type="veh_passenger" depart="188.29" departLane="best" from="265505860#3" to="-541398094#0"/>
    <trip id="veh98" type="veh_passenger" depart="190.23" departLane="best" departSpeed="max" from="226504947" to="990248842"/>
    <trip id="veh99" type="veh_passenger" depart="192.17" departLane="best" from="1051744784#0" to="5709250#5"/>
    <trip id="veh100" type="veh_passenger" depart="194.11" departLane="best" from="276629019#9" to="265505861#0"/>
    <trip id="veh101" type="veh_passenger" depart="196.06" departLane="best" from="864226828#0" to="990248843-AddedOnRampEdge"/>
    <trip id="veh102" type="veh_passenger" depart="198.00" departLane="best" from="529837175#4" to="5705703#17"/>
    <trip id="veh103" type="veh_passenger" depart="199.94" departLane="best" from="-5708763#1" to="1051744785#1"/>
    <trip id="veh104" type="veh_passenger" depart="201.88" departLane="best" departSpeed="max" from="959127486" to="529837175#3"/>
    <trip id="veh105" type="veh_passenger" depart="203.82" departLane="best" from="502778877#1" to="5706959#4"/>
    <trip id="veh106" type="veh_passenger" depart="205.76" departLane="best" from="-41166510#0" to="529837175#5"/>
    <trip id="veh107" type="veh_passenger" depart="207.70" departLane="best" from="421155641" to="581458828#0"/>
    <trip id="veh108" type="veh_passenger" depart="209.64" departLane="best" from="-5708985" to="958141940"/>
    <trip id="veh109" type="veh_passenger" depart="211.58" departLane="best" from="-5701687#2" to="-5709497#1"/>
    <trip id="veh110" type="veh_passenger" depart="213.53" departLane="best" from="5701500#1" to="5703557#1"/>
    <trip id="veh111" type="veh_passenger" depart="215.47" departLane="best" from="-864226828#0" to="-5705020#0"/>
    <trip id="veh112" type="veh_passenger" depart="217.41" departLane="best" from="587038042#6" to="-864226827#2"/>
    <trip id="veh113" type="veh_passenger" depart="219.35" departLane="best" from="5701500#0" to="5701283#1"/>
    <trip id="veh114" type="veh_passenger" depart="221.29" departLane="best" from="266009765#11" to="529837175#5"/>
    <trip id="veh115" type="veh_passenger" depart="223.23" departLane="best" from="421155945#0" to="798225402#4"/>
    <trip id="veh116" type="veh_passenger" depart="225.17" departLane="best" departSpeed="max" from="-617887419" to="5705703#13"/>
    <trip id="veh117" type="veh_passenger" depart="227.11" departLane="best" departSpeed="max" from="1010884495" to="226504945#0"/>
    <trip id="veh118" type="veh_passenger" depart="229.05" departLane="best" from="5704518#0" to="1051744786"/>
    <trip id="veh119" type="veh_passenger" depart="231.00" departLane="best" from="219916422#3" to="5707025#5"/>
    <trip id="veh120" type="veh_passenger" depart="232.94" departLane="best" departSpeed="max" from="-5701283#1" to="276092522#1"/>
    <trip id="veh121" type="veh_passenger" depart="234.88" departLane="best" departSpeed="max" from="-5701283#1" to="-626535796#0"/>
    <trip id="veh122" type="veh_passenger" depart="236.82" departLane="best" from="1051744784#0" to="798225401#8"/>
    <trip id="veh123" type="veh_passenger" depart="238.76" departLane="best" departSpeed="max" from="586820548#0" to="587038042#4"/>
    <trip id="veh124" type="veh_passenger" depart="240.70" departLane="best" from="226504866#2" to="-5706381"/>
    <trip id="veh125" type="veh_passenger" depart="242.64" departLane="best" departSpeed="max" from="571062160#0" to="5705021#0"/>
    <trip id="veh126" type="veh_passenger" depart="244.58" departLane="best" from="5702235#2" to="990248842"/>
    <trip id="veh127" type="veh_passenger" depart="246.53" departLane="best" departSpeed="max" from="5703913#0" to="-226504865#6"/>
    <trip id="veh128" type="veh_passenger" depart="248.47" departLane="best" from="5710114#0" to="1051744786"/>
    <trip id="veh129" type="veh_passenger" depart="250.41" departLane="best" departSpeed="max" from="5704239#0" to="851839770#3"/>
    <trip id="veh130" type="veh_passenger" depart="252.35" departLane="best" from="-5705834#1" to="-5704794"/>
    <trip id="veh131" type="veh_passenger" depart="254.29" departLane="best" departSpeed="max" from="-5703279#2" to="421155945#1"/>
    <trip id="veh132" type="veh_passenger" depart="256.23" departLane="best" from="1051744784#3" to="5700554"/>
    <trip id="veh133" type="veh_passenger" depart="258.17" departLane="best" from="5705813#1" to="-5710308"/>
    <trip id="veh134" type="veh_passenger" depart="260.11" departLane="best" from="5703079#3" to="1017728623#3"/>
    <trip id="veh135" type="veh_passenger" depart="262.05" departLane="best" departSpeed="max" from="420340974#0" to="661874982#0"/>
    <trip id="veh136" type="veh_passenger" depart="264.00" departLane="best" from="574703082" to="-5703079#1"/>
    <trip id="veh137" type="veh_passenger" depart="265.94" departLane="best" departSpeed="max" from="266017339#0" to="1034710852#0"/>
    <trip id="veh138" type="veh_passenger" depart="267.88" departLane="best" from="-226504865#16" to="5708309#6"/>
    <trip id="veh139" type="veh_passenger" depart="269.82" departLane="best" from="5703240#11" to="1013096865#2"/>
    <trip id="veh140" type="veh_passenger" depart="271.76" departLane="best" departSpeed="max" from="5706499#0" to="421155945#0"/>
    <trip id="veh141" type="veh_passenger" depart="273.70" departLane="best" from="266017339#3" to="-226504865#9"/>
    <trip id="veh142" type="veh_passenger" depart="275.64" departLane="best" from="-5701497" to="587038042#6"/>
    <trip id="veh143" type="veh_passenger" depart="277.58" departLane="best" from="626535794" to="421155940"/>
    <trip id="veh144" type="veh_passenger" depart="279.52" departLane="best" departSpeed="max" from="571062160#0" to="529837175#4"/>
    <trip id="veh145" type="veh_passenger" depart="281.47" departLane="best" from="-5707025#4" to="-5705609#0"/>
    <trip id="veh146" type="veh_passenger" depart="283.41" departLane="best" from="182690847#3" to="617887422#1"/>
    <trip id="veh147" type="veh_passenger" depart="285.35" departLane="best" from="5709730#3" to="581458830#5"/>
    <trip id="veh148" type="veh_passenger" depart="287.29" departLane="best" from="617887421#2" to="-5710358#0"/>
    <trip id="veh149" type="veh_passenger" depart="289.23" departLane="best" from="1013096865#1" to="-5703240#8"/>
    <trip id="veh150" type="veh_passenger" depart="291.17" departLane="best" from="265505864#1" to="5701291#0"/>
    <trip id="veh151" type="veh_passenger" depart="293.11" departLane="best" from="-5708763#1" to="784990961"/>
    <trip id="veh152" type="veh_passenger" depart="295.05" departLane="best" departSpeed="max" from="581520343#0" to="979574379#1"/>
    <trip id="veh153" type="veh_passenger" depart="296.99" departLane="best" from="-265509034#2" to="5706137#9"/>
    <trip id="veh154" type="veh_passenger" depart="298.94" departLane="best" from="219972311#9" to="798225401#10"/>
    <trip id="veh155" type="veh_passenger" depart="300.88" departLane="best" from="5709951" to="581458830#7"/>
    <trip id="veh156" type="veh_passenger" depart="302.82" departLane="best" from="5710052#3" to="1032471955#2"/>
    <trip id="veh157" type="veh_passenger" depart="304.76" departLane="best" from="5709250#1" to="-5703557#3"/>
    <trip id="veh158" type="veh_passenger" depart="306.70" departLane="best" from="581521133#0" to="581458830#1"/>
    <trip id="veh159" type="veh_passenger" depart="308.64" departLane="best" departSpeed="max" from="276656615#0" to="1059815508#0"/>
    <trip id="veh160" type="veh_passenger" depart="310.58" departLane="best" from="5709730#1" to="-798225402#1"/>
    <trip id="veh161" type="veh_passenger" depart="312.52" departLane="best" from="-265509034#1" to="-5710052#1"/>
    <trip id="veh162" type="veh_passenger" depart="314.46" departLane="best" from="219972311#2" to="581458830#7"/>
    <trip id="veh163" type="veh_passenger" depart="316.41" departLane="best" from="958141940" to="1034737796"/>
    <trip id="veh164" type="veh_passenger" depart="318.35" departLane="best" from="5703240#5" to="226504948"/>
    <trip id="veh165" type="veh_passenger" depart="320.29" departLane="best" from="959162127" to="421155644"/>
    <trip id="veh166" type="veh_passenger" depart="322.23" departLane="best" from="798225402#4" to="-5704794"/>
    <trip id="veh167" type="veh_passenger" depart="324.17" departLane="best" departSpeed="max" from="959127486" to="-5707269"/>
    <trip id="veh168" type="veh_passenger" depart="326.11" departLane="best" from="911137968#1" to="1032471955#0"/>
    <trip id="veh169" type="veh_passenger" depart="328.05" departLane="best" from="-5703545#1" to="265509034#2"/>
    <trip id="veh170" type="veh_passenger" depart="329.99" departLane="best" from="5706137#9" to="1059815512#0"/>
    <trip id="veh171" type="veh_passenger" depart="331.94" departLane="best" departSpeed="max" from="5701891" to="38901138"/>
    <trip id="veh172" type="veh_passenger" depart="333.88" departLane="best" from="265505851#0" to="529837175#1"/>
    <trip id="veh174" type="veh_passenger" depart="337.76" departLane="best" from="-226504865#10" to="738517858"/>
    <trip id="veh175" type="veh_passenger" depart="339.70" departLane="best" from="502738506#3" to="5705703#19"/>
    <trip id="veh176" type="veh_passenger" depart="341.64" departLane="best" departSpeed="max" from="5706499#0" to="5703279#2"/>
    <trip id="veh177" type="veh_passenger" depart="343.58" departLane="best" from="226504865#4" to="-5701687#0"/>
    <trip id="veh178" type="veh_passenger" depart="345.52" departLane="best" departSpeed="max" from="5704239#0" to="182690847#10"/>
    <trip id="veh179" type="veh_passenger" depart="347.46" departLane="best" from="219916422#11" to="581458380#1"/>
    <trip id="veh180" type="veh_passenger" depart="349.41" departLane="best" from="5705834#0" to="1057070462"/>
    <trip id="veh181" type="veh_passenger" depart="351.35" departLane="best" from="182690847#5" to="265505852#0"/>
    <trip id="veh182" type="veh_passenger" depart="353.29" departLane="best" from="265505860#5" to="1051744784#5"/>
    <trip id="veh183" type="veh_passenger" depart="355.23" departLane="best" from="-5705703#5" to="265505860#6"/>
    <trip id="veh184" type="veh_passenger" depart="357.17" departLane="best" from="798225402#6" to="5703810"/>
    <trip id="veh185" type="veh_passenger" depart="359.11" departLane="best" departSpeed="max" from="617887425#0" to="5701205#0"/>
    <trip id="veh186" type="veh_passenger" depart="361.05" departLane="best" from="126145159" to="421155943#0"/>
    <trip id="veh187" type="veh_passenger" depart="362.99" departLane="best" from="-226504865#0" to="1051744784#0"/>
    <trip id="veh188" type="veh_passenger" depart="364.93" departLane="best" from="266017347#0" to="529837175#3"/>
    <trip id="veh189" type="veh_passenger" depart="366.88" departLane="best" from="5703913#1" to="276150628"/>
    <trip id="veh190" type="veh_passenger" depart="368.82" departLane="best" from="276152024#2" to="-626535796#1"/>
    <trip id="veh191" type="veh_passenger" depart="370.76" departLane="best" from="38901138" to="626535796#1"/>
    <trip id="veh192" type="veh_passenger" depart="372.70" departLane="best" from="5709730#3" to="-5707025#0"/>
    <trip id="veh193" type="veh_passenger" depart="374.64" departLane="best" from="-5702825#0" to="38901138-AddedOnRampEdge"/>
    <trip id="veh194" type="veh_passenger" depart="376.58" departLane="best" from="5703079#1" to="182690847#9"/>
    <trip id="veh195" type="veh_passenger" depart="378.52" departLane="best" from="5710191#0" to="5707025#3"/>
    <trip id="veh196" type="veh_passenger" depart="380.46" departLane="best" from="5704518#0" to="-798225401#5"/>
    <trip id="veh197" type="veh_passenger" depart="382.40" departLane="best" departSpeed="max" from="-581458379#1" to="-265509034#4"/>
    <trip id="veh198" type="veh_passenger" depart="384.35" departLane="best" departSpeed="max" from="1010884495" to="276295217"/>
    <trip id="veh199" type="veh_passenger" depart="386.29" departLane="best" from="265509034#2" to="5701687#2"/>
    <trip id="veh200" type="veh_passenger" depart="388.23" departLane="best" departSpeed="max" from="-574742464" to="5704518#4"/>
    <trip id="veh201" type="veh_passenger" depart="390.17" departLane="best" departSpeed="max" from="420340974#0" to="-864226826#1"/>
    <trip id="veh202" type="veh_passenger" depart="392.11" departLane="best" from="5703913#3" to="-226504865#3"/>
    <trip id="veh203" type="veh_passenger" depart="394.05" departLane="best" from="5706959#2" to="5708309#4"/>
    <trip id="veh204" type="veh_passenger" depart="395.99" departLane="best" departSpeed="max" from="-5703279#2" to="265505861#1"/>
    <trip id="veh205" type="veh_passenger" depart="397.93" departLane="best" from="-5710105#0" to="911137970"/>
    <trip id="veh206" type="veh_passenger" depart="399.88" departLane="best" from="421155941" to="-38901295#5"/>
    <trip id="veh207" type="veh_passenger" depart="401.82" departLane="best" from="1013096865#1" to="581458380#1"/>
    <trip id="veh208" type="veh_passenger" depart="403.76" departLane="best" from="276656611#1" to="5710046#0"/>
    <trip id="veh209" type="veh_passenger" depart="405.70" departLane="best" from="5704239#5" to="990248842"/>
    <trip id="veh210" type="veh_passenger" depart="407.64" departLane="best" from="5701500#1" to="864226828#0"/>
    <trip id="veh211" type="veh_passenger" depart="409.58" departLane="best" from="5705833#2" to="350677694#0"/>
    <trip id="veh212" type="veh_passenger" depart="411.52" departLane="best" departSpeed="max" from="571062160#0" to="421155943#0"/>
    <trip id="veh213" type="veh_passenger" depart="413.46" departLane="best" from="617887419" to="5706959#1"/>
    <trip id="veh214" type="veh_passenger" depart="415.40" departLane="best" from="38901138-AddedOffRampEdge" to="1013096865#0"/>
    <trip id="veh215" type="veh_passenger" depart="417.35" departLane="best" departSpeed="max" from="1010884495" to="5701698#9"/>
    <trip id="veh216" type="veh_passenger" depart="419.29" departLane="best" from="5707453" to="38901295#5"/>
    <trip id="veh217" type="veh_passenger" depart="421.23" departLane="best" from="5702825#5" to="1032471955#2"/>
    <trip id="veh218" type="veh_passenger" depart="423.17" departLane="best" departSpeed="max" from="-5701583#2" to="1051744784#0"/>
    <trip id="veh219" type="veh_passenger" depart="425.11" departLane="best" from="1051744784#3" to="1124086687#0"/>
    <trip id="veh220" type="veh_passenger" depart="427.05" departLane="best" departSpeed="max" from="502778877#0" to="-5705703#3"/>
    <trip id="veh221" type="veh_passenger" depart="428.99" departLane="best" from="5705703#11" to="-5701200#2"/>
    <trip id="veh222" type="veh_passenger" depart="430.93" departLane="best" from="265505864#2" to="421155935#1"/>
    <trip id="veh223" type="veh_passenger" depart="432.87" departLane="best" from="265509034#3" to="-5710353"/>
    <trip id="veh224" type="veh_passenger" depart="434.82" departLane="best" from="266009765#3" to="661874981"/>
    <trip id="veh226" type="veh_passenger" depart="438.70" departLane="best" from="581458380#4" to="5708309#16"/>
    <trip id="veh227" type="veh_passenger" depart="440.64" departLane="best" departSpeed="max" from="226504947" to="-226504865#3"/>
    <trip id="veh228" type="veh_passenger" depart="442.58" departLane="best" from="219973375#3" to="5707025#7"/>
    <trip id="veh229" type="veh_passenger" depart="444.52" departLane="best" from="581458380#2" to="885214721"/>
    <trip id="veh230" type="veh_passenger" depart="446.46" departLane="best" from="266009765#10" to="5706959#4"/>
    <trip id="veh231" type="veh_passenger" depart="448.40" departLane="best" from="529837173" to="556607167#1"/>
    <trip id="veh232" type="veh_passenger" depart="450.34" departLane="best" from="-798225402#4" to="-696730631#2"/>
    <trip id="veh233" type="veh_passenger" depart="452.29" departLane="best" from="276150622" to="-266009765#6"/>
    <trip id="veh234" type="veh_passenger" depart="454.23" departLane="best" from="219972312#4" to="5703913#3"/>
    <trip id="veh235" type="veh_passenger" depart="456.17" departLane="best" from="265505861#1" to="-5706499#1"/>
    <trip id="veh236" type="veh_passenger" depart="458.11" departLane="best" from="350677693#1" to="-5705609#0"/>
    <trip id="veh237" type="veh_passenger" depart="460.05" departLane="best" from="5702821#0" to="-266009765#3"/>
    <trip id="veh238" type="veh_passenger" depart="461.99" departLane="best" from="265505855" to="502738505#0"/>
    <trip id="veh239" type="veh_passenger" depart="463.93" departLane="best" from="-265509034#4" to="5702491#1"/>
    <trip id="veh240" type="veh_passenger" depart="465.87" departLane="best" from="-5706136#1" to="276092522#3"/>
    <trip id="veh241" type="veh_passenger" depart="467.82" departLane="best" from="-276629019#8" to="226504865#1"/>