<?xml version="1.0" encoding="UTF-8"?>

<!-- generated on 2023-02-28 01:43:14.867476 by osmWebWizard.py v1_14_1+0000-f654d7b963e
<configuration>
    <end value="3600"/>
    <fringe-factor value="5.0"/>
    <fringe-start-attributes value="departSpeed=&quot;max&quot;"/>
    <min-distance value="600.0"/>
    <net-file value="C:\Users\mmatt\Sumo\2023-02-28-01-43-08\osm.net.xml"/>
    <period value="2.91171279175605"/>
    <route-file value="C:\Users\mmatt\Sumo\2023-02-28-01-43-08\osm.truck.rou.xml"/>
    <trip-attributes value="departLane=&quot;best&quot;"/>
    <output-trip-file value="C:\Users\mmatt\Sumo\2023-02-28-01-43-08\osm.truck.trips.xml"/>
    <prefix value="truck"/>
    <validate value="True"/>
    <vclass value="truck"/>
    <vehicle-class value="truck"/>
</configuration>
-->

<!-- generated on 2023-02-28 01:43:14 by Eclipse SUMO duarouter Version 1.14.1
<configuration xmlns:xsi="http://www.w3.org/2001/XMLSchema-instance" xsi:noNamespaceSchemaLocation="http://sumo.dlr.de/xsd/duarouterConfiguration.xsd">

    <input>
        <net-file value="C:\Users\mmatt\Sumo\2023-02-28-01-43-08\osm.net.xml"/>
        <route-files value="C:\Users\mmatt\Sumo\2023-02-28-01-43-08\osm.truck.trips.xml"/>
    </input>

    <output>
        <output-file value="C:\Users\mmatt\Sumo\2023-02-28-01-43-08\osm.truck.trips.xml.tmp"/>
        <alternatives-output value="NUL"/>
        <write-trips value="true"/>
    </output>

    <time>
        <begin value="0"/>
        <end value="3600"/>
    </time>

    <report>
        <no-warnings value="true"/>
        <ignore-errors value="true"/>
        <no-step-log value="true"/>
    </report>

</configuration>
-->

<routes xmlns:xsi="http://www.w3.org/2001/XMLSchema-instance" xsi:noNamespaceSchemaLocation="http://sumo.dlr.de/xsd/routes_file.xsd">
    <vType id="truck_truck" vClass="truck"/>
    <trip id="truck0" type="truck_truck" depart="0.00" departLane="best" from="5703240#9" to="-265509034#3"/>
    <trip id="truck1" type="truck_truck" depart="2.91" departLane="best" from="-851839772#1" to="-5709497#1"/>
    <trip id="truck2" type="truck_truck" depart="5.82" departLane="best" departSpeed="max" from="5706201" to="5703557#4"/>
    <trip id="truck3" type="truck_truck" depart="8.74" departLane="best" from="586390422#0" to="-5701891"/>
    <trip id="truck4" type="truck_truck" depart="11.65" departLane="best" from="-5710304#1" to="278903052"/>
    <trip id="truck5" type="truck_truck" depart="14.56" departLane="best" from="-265509034#0" to="-5706501"/>
    <trip id="truck6" type="truck_truck" depart="17.47" departLane="best" departSpeed="max" from="5703913#0" to="421155943#1"/>
    <trip id="truck7" type="truck_truck" depart="20.38" departLane="best" departSpeed="max" from="5709730#0" to="-226504865#2"/>
    <trip id="truck8" type="truck_truck" depart="23.29" departLane="best" from="5709497#1" to="5705020#1"/>
    <trip id="truck9" type="truck_truck" depart="26.21" departLane="best" from="219916732" to="-5705609#3"/>
    <trip id="truck10" type="truck_truck" depart="29.12" departLane="best" from="851839770#4" to="1082076288#0"/>
    <trip id="truck11" type="truck_truck" depart="32.03" departLane="best" from="-5701687#0" to="-5702782"/>
    <trip id="truck12" type="truck_truck" depart="34.94" departLane="best" from="5709497#3" to="5705834#1"/>
    <trip id="truck13" type="truck_truck" depart="37.85" departLane="best" from="529837175#0" to="885214720"/>
    <trip id="truck14" type="truck_truck" depart="40.76" departLane="best" from="226504865#6" to="421156314#6"/>
    <trip id="truck15" type="truck_truck" depart="43.68" departLane="best" from="5710051#1" to="5701687#1"/>
    <trip id="truck16" type="truck_truck" depart="46.59" departLane="best" from="571062161" to="541398094#1"/>
    <trip id="truck17" type="truck_truck" depart="49.50" departLane="best" departSpeed="max" from="-574742463" to="-851839772#5"/>
    <trip id="truck18" type="truck_truck" depart="52.41" departLane="best" from="-5702825#2" to="-798225402#6"/>
    <trip id="truck19" type="truck_truck" depart="55.32" departLane="best" from="5703240#4" to="219916423#0"/>
    <trip id="truck20" type="truck_truck" depart="58.23" departLane="best" from="226504865#1" to="-5707025#8"/>
    <trip id="truck21" type="truck_truck" depart="61.15" departLane="best" from="-798225402#6" to="681047400"/>
    <trip id="truck22" type="truck_truck" depart="64.06" departLane="best" departSpeed="max" from="5703913#0" to="5701396"/>
    <trip id="truck23" type="truck_truck" depart="66.97" departLane="best" from="-5706458#1" to="5705834#0"/>
    <trip id="truck24" type="truck_truck" depart="69.88" departLane="best" from="-5706137#1" to="219972312#0"/>
    <trip id="truck25" type="truck_truck" depart="72.79" departLane="best" from="959162127" to="5702825#0"/>
    <trip id="truck26" type="truck_truck" depart="75.70" departLane="best" departSpeed="max" from="552471238#0" to="5704239#3"/>
    <trip id="truck27" type="truck_truck" depart="78.62" departLane="best" departSpeed="max" from="-574742463" to="-266009765#7"/>
    <trip id="truck28" type="truck_truck" depart="81.53" departLane="best" from="1124086687#0" to="-798225401#10"/>
    <trip id="truck29" type="truck_truck" depart="84.44" departLane="best" from="-5710105#1" to="784990959#2"/>
    <trip id="truck30" type="truck_truck" depart="87.35" departLane="best" from="626535796#1" to="266017347#1"/>
    <trip id="truck31" type="truck_truck" depart="90.26" departLane="best" from="-798225401#9" to="-5710308"/>
    <trip id="truck32" type="truck_truck" depart="93.17" departLane="best" from="556607167#2" to="-696730631#0"/>
    <trip id="truck33" type="truck_truck" depart="96.09" departLane="best" from="5701698#3" to="587038042#5"/>
    <trip id="truck34" type="truck_truck" depart="99.00" departLane="best" from="265505846#2" to="-5708763#2"/>
    <trip id="truck35" type="truck_truck" depart="101.91" departLane="best" from="990248843-AddedOffRampEdge" to="326004473#0"/>
    <trip id="truck36" type="truck_truck" depart="104.82" departLane="best" departSpeed="max" from="-5701583#2" to="-276629019#4"/>
    <trip id="truck37" type="truck_truck" depart="107.73" departLane="best" from="-5703079#2" to="5701698#9"/>
    <trip id="truck38" type="truck_truck" depart="110.65" departLane="best" from="5708309#5" to="265505853#0"/>
    <trip id="truck39" type="truck_truck" depart="113.56" departLane="best" from="979574379#1" to="41166510#1"/>
    <trip id="truck40" type="truck_truck" depart="116.47" departLane="best" from="-226504865#9" to="5705703#4"/>
    <trip id="truck41" type="truck_truck" depart="119.38" departLane="best" departSpeed="max" from="5704794" to="421155644"/>
    <trip id="truck42" type="truck_truck" depart="122.29" departLane="best" from="-798225402#6" to="5702825#1"/>
    <trip id="truck43" type="truck_truck" depart="125.20" departLane="best" from="-5703079#4" to="265505860#6"/>
    <trip id="truck44" type="truck_truck" depart="128.12" departLane="best" from="581458380#4" to="-696730631#2"/>
    <trip id="truck45" type="truck_truck" depart="131.03" departLane="best" from="421155639" to="-5706137#1"/>
    <trip id="truck46" type="truck_truck" depart="133.94" departLane="best" from="626535794" to="581458380#2"/>
    <trip id="truck47" type="truck_truck" depart="136.85" departLane="best" departSpeed="max" from="5702782" to="-5705609#0"/>
    <trip id="truck48" type="truck_truck" depart="139.76" departLane="best" from="5707025#11" to="421155935#0"/>
    <trip id="truck49" type="truck_truck" depart="142.67" departLane="best" from="5707784#1" to="41166510#3"/>
    <trip id="truck50" type="truck_truck" depart="145.59" departLane="best" from="-226504865#0" to="1051744785#1"/>
    <trip id="truck51" type="truck_truck" depart="148.50" departLane="best" from="-265505860#2" to="661874993#1"/>
    <trip id="truck52" type="truck_truck" depart="151.41" departLane="best" from="581458830#1" to="5710105#3"/>
    <trip id="truck53" type="truck_truck" depart="154.32" departLane="best" from="1057070462" to="-38901295#5"/>
    <trip id="truck54" type="truck_truck" depart="157.23" departLane="best" from="581458830#0" to="798225401#11"/>
    <trip id="truck55" type="truck_truck" depart="160.14" departLane="best" departSpeed="max" from="-5701283#1" to="276375608"/>
    <trip id="truck56" type="truck_truck" depart="163.06" departLane="best" from="-41166510#4" to="5707025#8"/>
    <trip id="truck57" type="truck_truck" depart="165.97" departLane="best" from="5707025#5" to="-5703557#4"/>
    <trip id="truck58" type="truck_truck" depart="168.88" departLane="best" from="278903049" to="421156314#3"/>
    <trip id="truck59" type="truck_truck" depart="171.79" departLane="best" from="-798225401#9" to="581458380#4"/>
    <trip id="truck60" type="truck_truck" depart="174.70" departLane="best" from="529837175#4" to="5705834#1"/>
    <trip id="truck61" type="truck_truck" depart="177.61" departLane="best" from="-5709849#2" to="1032471955#2"/>
    <trip id="truck62" type="truck_truck" depart="180.53" departLane="best" from="979574379#0" to="5703067#4"/>
    <trip id="truck63" type="truck_truck" depart="183.44" departLane="best" from="266017347#0" to="350719243#0"/>
    <trip id="truck64" type="truck_truck" depart="186.35" departLane="best" from="-5703240#7" to="-5709497#4"/>
    <trip id="truck65" type="truck_truck" depart="189.26" departLane="best" from="-541398094#0" to="5702190#0"/>
    <trip id="truck66" type="truck_truck" depart="192.17" departLane="best" departSpeed="max" from="-574742463" to="617853238#2"/>
    <trip id="truck67" type="truck_truck" depart="195.08" departLane="best" from="571062160#1" to="-541398094#5"/>
    <trip id="truck68" type="truck_truck" depart="198.00" departLane="best" departSpeed="max" from="-581458379#1" to="5703279#2"/>
    <trip id="truck69" type="truck_truck" depart="200.91" departLane="best" departSpeed="max" from="-5710105#3" to="-5703914"/>
    <trip id="truck70" type="truck_truck" depart="203.82" departLane="best" from="729985823#1" to="529837175#6"/>
    <trip id="truck71" type="truck_truck" depart="206.73" departLane="best" departSpeed="max" from="276656615#0" to="5708735"/>
    <trip id="truck72" type="truck_truck" depart="209.64" departLane="best" from="5709497#4" to="-5706381"/>
    <trip id="truck73" type="truck_truck" depart="212.56" departLane="best" from="265509034#4" to="276092522#3"/>
    <trip id="truck74" type="truck_truck" depart="215.47" departLane="best" from="958141940" to="-5702821#1"/>
    <trip id="truck75" type="truck_truck" depart="218.38" departLane="best" from="265505852#0" to="1124086687#3"/>
    <trip id="truck76" type="truck_truck" depart="221.29" departLane="best" from="571062161" to="-5710353"/>
    <trip id="truck77" type="truck_truck" depart="224.20" departLane="best" from="-5709497#3" to="266009765#11"/>
    <trip id="truck78" type="truck_truck" depart="227.11" departLane="best" from="265509034#2" to="-839130172#0"/>
    <trip id="truck79" type="truck_truck" depart="230.03" departLane="best" from="-626535796#2" to="661874982#4"/>
    <trip id="truck80" type="truck_truck" depart="232.94" departLane="best" from="276150625" to="574742464"/>
    <trip id="truck81" type="truck_truck" depart="235.85" departLane="best" from="541398094#5" to="-276629019#8"/>
    <trip id="truck82" type="truck_truck" depart="238.76" departLane="best" from="864226826#2" to="661874982#7"/>
    <trip id="truck83" type="truck_truck" depart="241.67" departLane="best" departSpeed="max" from="5710308" to="-5705703#5"/>
    <trip id="truck84" type="truck_truck" depart="244.58" departLane="best" from="38901295#0" to="-5707269"/>
    <trip id="truck85" type="truck_truck" depart="247.50" departLane="best" from="265505851#2" to="-41166510#0"/>
    <trip id="truck86" type="truck_truck" depart="250.41" departLane="best" from="-798225402#4" to="5708735"/>
    <trip id="truck87" type="truck_truck" depart="253.32" departLane="best" from="276375604" to="265505856#0"/>
    <trip id="truck88" type="truck_truck" depart="256.23" departLane="best" from="851839770#4" to="990248842"/>
    <trip id="truck89" type="truck_truck" depart="259.14" departLane="best" departSpeed="max" from="552471238#0" to="5705703#19"/>
    <trip id="truck90" type="truck_truck" depart="262.05" departLane="best" from="-5705703#9" to="-864226827#4"/>
    <trip id="truck91" type="truck_truck" depart="264.97" departLane="best" departSpeed="max" from="864226826#0" to="541398094#3"/>
    <trip id="truck92" type="truck_truck" depart="267.88" departLane="best" from="-276629019#7" to="556607152"/>
    <trip id="truck93" type="truck_truck" depart="270.79" departLane="best" from="421155642" to="571402041#0"/>
    <trip id="truck94" type="truck_truck" depart="273.70" departLane="best" from="-5705833#1" to="851839772#1"/>
    <trip id="truck95" type="truck_truck" depart="276.61" departLane="best" departSpeed="max" from="5702235#0" to="5703557#2"/>
    <trip id="truck96" type="truck_truck" depart="279.52" departLane="best" from="-581458379#0" to="-5703240#6"/>
    <trip id="truck97" type="truck_truck" depart="282.44" departLane="best" from="581521133#0" to="-5710308"/>
    <trip id="truck98" type="truck_truck" depart="285.35" departLane="best" from="5702190#1" to="5701687#2"/>
    <trip id="truck99" type="truck_truck" depart="288.26" departLane="best" from="265505867" to="547157847#0"/>
    <trip id="truck100" type="truck_truck" depart="291.17" departLane="best" from="-5710052#0" to="5705703#15"/>
    <trip id="truck101" type="truck_truck" depart="294.08" departLane="best" departSpeed="max" from="-581458379#1" to="226504865#16"/>
    <trip id="truck102" type="truck_truck" depart="296.99" departLane="best" from="5704474" to="-885214718#0"/>
    <trip id="truck103" type="truck_truck" depart="299.91" departLane="best" from="1124086687#2" to="5706959#4"/>
    <trip id="truck104" type="truck_truck" depart="302.82" departLane="best" from="-541398094#2" to="266017347#1"/>
    <trip id="truck105" type="truck_truck" depart="305.73" departLane="best" from="990248843-AddedOnRampEdge" to="990248842"/>
    <trip id="truck106" type="truck_truck" depart="308.64" departLane="best" from="-541398094#3" to="-5707269"/>
    <trip id="truck107" type="truck_truck" depart="311.55" departLane="best" from="-798225402#4" to="681047000"/>
    <trip id="truck108" type="truck_truck" depart="314.46" departLane="best" from="226504865#0" to="-5705703#10"/>
    <trip id="truck109" type="truck_truck" depart="317.38" departLane="best" from="5710052#5" to="5705452#1"/>
    <trip id="truck110" type="truck_truck" depart="320.29" departLane="best" departSpeed="max" from="5702782" to="979574371#2"/>
    <trip id="truck111" type="truck_truck" depart="323.20" departLane="best" from="5703913#4" to="-226504865#4"/>
    <trip id="truck112" type="truck_truck" depart="326.11" departLane="best" departSpeed="max" from="5704239#0" to="696730631#2"/>
    <trip id="truck113" type="truck_truck" depart="329.02" departLane="best" from="-5703067#4" to="421156314#7"/>
    <trip id="truck114" type="truck_truck" depart="331.94" departLane="best" from="-851839770#5" to="5701283#1"/>
    <trip id="truck115" type="truck_truck" depart="334.85" departLane="best" from="5705805" to="-5707025#10"/>
    <trip id="truck116" type="truck_truck" depart="337.76" departLane="best" from="5703240#2" to="-784990959#0"/>
    <trip id="truck117" type="truck_truck" depart="340.67" departLane="best" from="38901295#4" to="617853238#2"/>
    <trip id="truck118" type="truck_truck" depart="343.58" departLane="best" from="5710304#5" to="-5702235#1"/>
    <trip id="truck119" type="truck_truck" depart="346.49" departLane="best" from="265509034#4" to="-798225402#4"/>
    <trip id="truck120" type="truck_truck" depart="349.41" departLane="best" from="-226504865#15" to="5708309#10"/>
    <trip id="truck121" type="truck_truck" depart="352.32" departLane="best" from="5703240#6" to="-676405887#1"/>
    <trip id="truck122" type="truck_truck" depart="355.23" departLane="best" from="5706329#2" to="421156314#5"/>
    <trip id="truck123" type="truck_truck" depart="358.14" departLane="best" from="266009765#4" to="-226504865#6"/>
    <trip id="truck124" type="truck_truck" depart="361.05" departLane="best" from="-541399250#0" to="581458830#7"/>
    <trip id="truck125" type="truck_truck" depart="363.96" departLane="best" from="587038042#8" to="421155944"/>
    <trip id="truck126" type="truck_truck" depart="366.88" departLane="best" from="5710072" to="541399250#2"/>
    <trip id="truck127" type="truck_truck" depart="369.79" departLane="best" from="-5705703#17" to="-5703557#3"/>
    <trip id="truck128" type="truck_truck" depart="372.70" departLane="best" from="5708763#0" to="574742463"/>
    <trip id="truck129" type="truck_truck" depart="375.61" departLane="best" from="587038042#2" to="-5707025#9"/>
    <trip id="truck130" type="truck_truck" depart="378.52" departLane="best" from="5707784#3" to="581458830#7"/>
    <trip id="truck131" type="truck_truck" depart="381.43" departLane="best" from="265505856#2" to="5701698#1"/>
    <trip id="truck132" type="truck_truck" depart="384.35" departLane="best" from="-5705703#9" to="676405887#0"/>
    <trip id="truck133" type="truck_truck" depart="387.26" departLane="best" from="571402041#1" to="911137968#2"/>
    <trip id="truck134" type="truck_truck" depart="390.17" departLane="best" departSpeed="max" from="5709730#0" to="581458830#4"/>
    <trip id="truck135" type="truck_truck" depart="393.08" departLane="best" departSpeed="max" from="-265505860#6" to="5706137#5"/>
    <trip id="truck136" type="truck_truck" depart="395.99" departLane="best" from="219916422#12" to="681046338"/>
    <trip id="truck137" type="truck_truck" depart="398.90" departLane="best" from="5709073" to="574742464"/>
    <trip id="truck138" type="truck_truck" depart="401.82" departLane="best" departSpeed="max" from="5709730#0" to="-784990961"/>
    <trip id="truck139" type="truck_truck" depart="404.73" departLane="best" from="5708309#18" to="-5703079#0"/>
    <trip id="truck140" type="truck_truck" depart="407.64" departLane="best" from="581458379#0" to="574742463"/>
    <trip id="truck141" type="truck_truck" depart="410.55" departLane="best" departSpeed="max" from="-5710304#7" to="5709849#3"/>
    <trip id="truck142" type="truck_truck" depart="413.46" departLane="best" from="276629019#2" to="1013096863"/>
    <trip id="truck143" type="truck_truck" depart="416.37" departLane="best" departSpeed="max" from="-265505860#6" to="-5706458#1"/>
    <trip id="truck144" type="truck_truck" depart="419.29" departLane="best" from="182690847#7" to="574742464"/>
    <trip id="truck145" type="truck_truck" depart="422.20" departLane="best" departSpeed="max" from="864226826#0" to="-839130172#0"/>
    <trip id="truck146" type="truck_truck" depart="425.11" departLane="best" from="5703545#1" to="226504865#4"/>
    <trip id="truck147" type="truck_truck" depart="428.02" departLane="best" from="911137968#3" to="421155642"/>
    <trip id="truck148" type="truck_truck" depart="430.93" departLane="best" from="784990959#2" to="-5703240#13"/>
    <trip id="truck149" type="truck_truck" depart="433.85" departLane="best" from="851839772#3" to="-784990959#2"/>
    <trip id="truck150" type="truck_truck" depart="436.76" departLane="best" from="-5703079#0" to="265505860#6"/>
    <trip id="truck151" type="truck_truck" depart="439.67" departLane="best" from="5706137#4" to="1032471955#2"/>
    <trip id="truck152" type="truck_truck" depart="442.58" departLane="best" from="5702770#2" to="350677691"/>
    <trip id="truck153" type="truck_truck" depart="445.49" departLane="best" from="226504942#2" to="541398094#0"/>
    <trip id="truck154" type="truck_truck" depart="448.40" departLane="best" from="-226504865#10" to="661874982#7"/>
    <trip id="truck155" type="truck_truck" depart="451.32" departLane="best" from="5706329#3" to="5703279#2"/>
    <trip id="truck156" type="truck_truck" depart="454.23" departLane="best" from="5704239#1" to="1059815508#0"/>
    <trip id="truck157" type="truck_truck" depart="457.14" departLane="best" from="1068560484" to="5710358#1"/>
    <trip id="truck158" type="truck_truck" depart="460.05" departLane="best" from="5705833#0" to="-885214718#1"/>
    <trip id="truck159" type="truck_truck" depart="462.96" departLane="best" from="1059815509" to="226504942#3"/>
    <trip id="truck160" type="truck_truck" depart="465.87" departLane="best" from="265505852#0" to="-864226827#2"/>
    <trip id="truck161" type="truck_truck" depart="468.79" departLane="best" departSpeed="max" from="-5703279#2" to="265505851#4"/>
    <trip id="truck162" type="truck_truck" depart="471.70" departLane="best" from="784990959#3" to="5703810"/>
    <trip id="truck163" type="truck_truck" depart="474.61" departLane="best" from="587038042#7" to="5701583#0"/>
    <trip id="truck164" type="truck_truck" depart="477.52" departLane="best" from="1051744784#0" to="421156313#1"/>
    <trip id="truck165" type="truck_truck" depart="480.43" departLane="best" from="266009765#7" to="541398094#4"/>
    <trip id="truck166" type="truck_truck" depart="483.34" departLane="best" departSpeed="max" from="5703914" to="276092522#3"/>
    <trip id="truck167" type="truck_truck" depart="486.26" departLane="best" from="276092522#2" to="-5707269"/>
    <trip id="truck168" type="truck_truck" depart="489.17" departLane="best" from="5708763#0" to="-5705703#9"/>
    <trip id="truck169" type="truck_truck" depart="492.08" departLane="best" departSpeed="max" from="-5701283#1" to="350677695"/>
    <trip id="truck170" type="truck_truck" depart="494.99" departLane="best" from="5703240#16" to="1068560483"/>
    <trip id="truck171" type="truck_truck" depart="497.90" departLane="best" from="5709849#1" to="5706959#4"/>
    <trip id="truck172" type="truck_truck" depart="500.81" departLane="best" from="5704518#0" to="-5709497#4"/>
    <trip id="truck174" type="truck_truck" depart="506.64" departLane="best" departSpeed="max" from="-617887419" to="276152024#1"/>
    <trip id="truck175" type="truck_truck" depart="509.55" departLane="best" from="265505861#1" to="5701704"/>
    <trip id="truck176" type="truck_truck" depart="512.46" departLane="best" departSpeed="max" from="-5709497#6" to="5704733"/>
    <trip id="truck177" type="truck_truck" depart="515.37" departLane="best" from="41166510#4" to="-5710304#5"/>
    <trip id="truck178" type="truck_truck" depart="518.28" departLane="best" departSpeed="max" from="5706499#0" to="5708309#1"/>
    <trip id="truck179" type="truck_truck" depart="521.20" departLane="best" from="-5703067#4" to="265505856#2"/>
    <trip id="truck180" type="truck_truck" depart="524.11" departLane="best" from="-5707025#3" to="851839770#5"/>
    <trip id="truck181" type="truck_truck" depart="527.02" departLane="best" from="421156314#5" to="-276629019#8"/>
    <trip id="truck183" type="truck_truck" depart="532.84" departLane="best" from="276375611#0" to="5709497#6"/>
    <trip id="truck184" type="truck_truck" depart="535.76" departLane="best" from="5704239#5" to="979574379#0"/>
    <trip id="truck185" type="truck_truck" depart="538.67" departLane="best" departSpeed="max" from="5702235#0" to="798225401#9"/>
    <trip id="truck186" type="truck_truck" depart="541.58" departLane="best" from="581784552" to="5701500#0"/>
    <trip id="truck187" type="truck_truck" depart="544.49" departLane="best" from="5705813#1" to="278903052"/>
    <trip id="truck188" type="truck_truck" depart="547.40" departLane="best" from="5710052#1" to="421156313#1"/>
    <trip id="truck189" type="truck_truck" depart="550.31" departLane="best" departSpeed="max" from="586820548#0" to="5706458#1"/>
    <trip id="truck190" type="truck_truck" depart="553.23" departLane="best" from="276656615#1" to="-661874981"/>
    <trip id="truck191" type="truck_truck" depart="556.14" departLane="best" departSpeed="max" from="-617887419" to="5702770#4"/>
    <trip id="truck192" type="truck_truck" depart="559.05" departLane="best" from="5707025#5" to="38901138-AddedOffRampEdge"/>
    <trip id="truck193" type="truck_truck" depart="561.96" departLane="best" from="5703079#2" to="-798225402#1"/>
    <trip id="truck194" type="truck_truck" depart="564.87" departLane="best" from="-5701200#1" to="-851839770#8"/>
    <trip id="truck195" type="truck_truck" depart="567.78" departLane="best" from="-851839770#4" to="1051744784#0"/>
    <trip id="truck196" type="truck_truck" depart="570.70" departLane="best" from="529837175#5" to="-5704794"/>
    <trip id="truck197" type="truck_truck" depart="573.61" departLane="best" from="5705703#12" to="-469587911"/>
    <trip id="truck198" type="truck_truck" depart="576.52" departLane="best" from="265505858" to="421155940"/>
    <trip id="truck199" type="truck_truck" depart="579.43" departLane="best" from="265509034#0" to="617853238#2"/>
    <trip id="truck200" type="truck_truck" depart="582.34" departLane="best" from="5701698#2" to="5704731"/>
    <trip id="truck201" type="truck_truck" depart="585.25" departLane="best" departSpeed="max" from="571062160#0" to="5707453"/>
    <trip id="truck202" type="truck_truck" depart="588.17" departLane="best" from="226504865#8" to="-226504865#18"/>
    <trip id="truck203" type="truck_truck" depart="591.08" departLane="best" from="219972311#8" to="5706959#4"/>
    <trip id="truck204" type="truck_truck" depart="593.99" departLane="best" departSpeed="max" from="5710358#0" to="839130172#0"/>
    <trip id="truck205" type="truck_truck" depart="596.90" departLane="best" from="265505866#2" to="5706959#0"/>
    <trip id="truck206" type="truck_truck" depart="599.81" departLane="best" from="-5710304#4" to="-5708763#2"/>
    <trip id="truck207" type="truck_truck" depart="602.72" departLane="best" from="266017339#2" to="-266009765#11"/>
    <trip id="truck208" type="truck_truck" depart="605.64" departLane="best" from="219916422#5" to="5703913#3"/>
    <trip id="truck209" type="truck_truck" depart="608.55" departLane="best" from="265505855" to="-5705703#3"/>
    <trip id="truck210" type="truck_truck" depart="611.46" departLane="best" from="5703067#2" to="-266009765#1"/>
    <trip id="truck211" type="truck_truck" depart="614.37" departLane="best" departSpeed="max" from="226504947" to="502778877#5"/>
    <trip id="truck212" type="truck_truck" depart="617.28" departLane="best" from="-265509034#1" to="5702825#4"/>
    <trip id="truck213" type="truck_truck" depart="620.19" departLane="best" from="-5704733" to="266017348#1"/>
    <trip id="truck214" type="truck_truck" depart="623.11" departLane="best" from="-276375608" to="219972312#0"/>
    <trip id="truck215" type="truck_truck" depart="626.02" departLane="best" from="-5710105#2" to="1059266680#0"/>
    <trip id="truck216" type="truck_truck" depart="628.93" departLane="best" from="5707025#0" to="219972312#0"/>
    <trip id="truck217" type="truck_truck" depart="631.84" departLane="best" from="5706499#1" to="5710105#3"/>
    <trip id="truck218" type="truck_truck" depart="634.75" departLane="best" from="-661874981" to="-5701687#1"/>
    <trip id="truck219" type="truck_truck" depart="637.67" departLane="best" from="-265505860#2" to="421155935#0"/>
    <trip id="truck220" type="truck_truck" depart="640.58" departLane="best" departSpeed="max" from="5703913#0" to="5708309#6"/>
    <trip id="truck221" type="truck_truck" depart="643.49" departLane="best" from="5703913#1" to="5707025#0"/>
    <trip id="truck222" type="truck_truck" depart="646.40" departLane="best" from="798225401#9" to="-5706501"/>
    <trip id="truck223" type="truck_truck" depart="649.31" departLane="best" from="-265505860#3" to="-5705609#0"/>
    <trip id="truck224" type="truck_truck" depart="652.22" departLane="best" from="-5706137#7" to="5701283#1"/>
    <trip id="truck225" type="truck_truck" depart="655.14" departLane="best" departSpeed="max" from="5706499#0" to="-5703240#12"/>
    <trip id="truck226" type="truck_truck" depart="658.05" departLane="best" from="-5703079#0" to="-265509034#4"/>
    <trip id="truck227" type="truck_truck" depart="660.96" departLane="best" from="1059815512#0" to="5703810"/>
    <trip id="truck228" type="truck_truck" depart="663.87" departLane="best" from="851839770#5" to="226504865#17"/>
    <trip id="truck229" type="truck_truck" depart="666.78" departLane="best" from="5705703#7" to="-5701201#1"/>
    <trip id="truck230" type="truck_truck" depart="669.69" departLane="best" from="5705388#4" to="5701698#9"/>
    <trip id="truck231" type="truck_truck" depart="672.61" departLane="best" from="-5703240#7" to="958141941"/>
    <trip id="truck232" type="truck_truck" depart="675.52" departLane="best" from="5708309#11" to="182690847#3"/>
    <trip id="truck233" type="truck_truck" depart="678.43" departLane="best" from="266009765#5" to="219972311#13"/>
    <trip id="truck234" type="truck_truck" depart="681.34" departLane="best" from="421155935#0" to="126145159"/>
    <trip id="truck235" type="truck_truck" depart="684.25" departLane="best" from="5703240#4" to="5710078#1"/>
    <trip id="truck236" type="truck_truck" depart="687.16" departLane="best" from="5705703#13" to="265505860#6"/>
    <trip id="truck237" type="truck_truck" depart="690.08" departLane="best" departSpeed="max" from="5706201" to="864226826#2"/>
    <trip id="truck238" type="truck_truck" depart="692.99" departLane="best" from="-851839770#2" to="5709730#5"/>
    <trip id="truck239" type="truck_truck" depart="695.90" departLane="best" from="529837175#2" to="276295217"/>
    <trip id="truck240" type="truck_truck" depart="698.81" departLane="best" from="266017339#1" to="5705834#2"/>
    <trip id="truck241" type="truck_truck" depart="701.72" departLane="best" from="-839130172#2" to="571062166#0"/>
    <trip id="truck242" type="truck_truck" depart="704.63" departLane="best" from="5710052#1" to="-5701891"/>
    <trip id="truck243" type="truck_truck" depart="707.55" departLane="best" from="581458830#5" to="-5710304#5"/>