<?xml version="1.0" encoding="UTF-8"?>

<!-- generated on 2023-02-28 01:43:17.523568 by osmWebWizard.py v1_14_1+0000-f654d7b963e
<configuration>
    <end value="3600"/>
    <fringe-factor value="2.0"/>
    <fringe-start-attributes value="departSpeed=&quot;max&quot;"/>
    <max-distance value="1200.0"/>
    <net-file value="C:\Users\mmatt\Sumo\2023-02-28-01-43-08\osm.net.xml"/>
    <period value="5.8234255835121"/>
    <route-file value="C:\Users\mmatt\Sumo\2023-02-28-01-43-08\osm.motorcycle.rou.xml"/>
    <trip-attributes value="departLane=&quot;best&quot;"/>
    <output-trip-file value="C:\Users\mmatt\Sumo\2023-02-28-01-43-08\osm.motorcycle.trips.xml"/>
    <prefix value="moto"/>
    <validate value="True"/>
    <vclass value="motorcycle"/>
    <vehicle-class value="motorcycle"/>
</configuration>
-->

<!-- generated on 2023-02-28 01:43:17 by Eclipse SUMO duarouter Version 1.14.1
<configuration xmlns:xsi="http://www.w3.org/2001/XMLSchema-instance" xsi:noNamespaceSchemaLocation="http://sumo.dlr.de/xsd/duarouterConfiguration.xsd">

    <input>
        <net-file value="C:\Users\mmatt\Sumo\2023-02-28-01-43-08\osm.net.xml"/>
        <route-files value="C:\Users\mmatt\Sumo\2023-02-28-01-43-08\osm.motorcycle.trips.xml"/>
    </input>

    <output>
        <output-file value="C:\Users\mmatt\Sumo\2023-02-28-01-43-08\osm.motorcycle.trips.xml.tmp"/>
        <alternatives-output value="NUL"/>
        <write-trips value="true"/>
    </output>

    <time>
        <begin value="0"/>
        <end value="3600"/>
    </time>

    <report>
        <no-warnings value="true"/>
        <ignore-errors value="true"/>
        <no-step-log value="true"/>
    </report>

</configuration>
-->

<routes xmlns:xsi="http://www.w3.org/2001/XMLSchema-instance" xsi:noNamespaceSchemaLocation="http://sumo.dlr.de/xsd/routes_file.xsd">
    <vType id="moto_motorcycle" vClass="motorcycle"/>
    <trip id="moto0" type="moto_motorcycle" depart="0.00" departLane="best" from="265505860#3" to="-266009765#0"/>
    <trip id="moto1" type="moto_motorcycle" depart="5.82" departLane="best" departSpeed="max" from="-265505860#6" to="-5707025#3"/>
    <trip id="moto2" type="moto_motorcycle" depart="11.65" departLane="best" from="5703240#2" to="421156314#0"/>
    <trip id="moto3" type="moto_motorcycle" depart="17.47" departLane="best" from="-5710105#2" to="556607167#2"/>
    <trip id="moto4" type="moto_motorcycle" depart="23.29" departLane="best" from="5709250#1" to="-226504865#18"/>
    <trip id="moto5" type="moto_motorcycle" depart="29.12" departLane="best" from="5708767#1" to="5704518#4"/>
    <trip id="moto6" type="moto_motorcycle" depart="34.94" departLane="best" from="851839770#2" to="182690847#1"/>
    <trip id="moto7" type="moto_motorcycle" depart="40.76" departLane="best" from="-5701687#0" to="-5702782"/>
    <trip id="moto8" type="moto_motorcycle" depart="46.59" departLane="best" from="5710191#0" to="5701272"/>
    <trip id="moto9" type="moto_motorcycle" depart="52.41" departLane="best" from="421156315" to="864226828#0"/>
    <trip id="moto10" type="moto_motorcycle" depart="58.23" departLane="best" departSpeed="max" from="5705456" to="-276375608"/>
    <trip id="moto11" type="moto_motorcycle" depart="64.06" departLane="best" from="5703067#1" to="219972311#15"/>
    <trip id="moto12" type="moto_motorcycle" depart="69.88" departLane="best" from="5703240#15" to="5701396"/>
    <trip id="moto13" type="moto_motorcycle" depart="75.70" departLane="best" from="529837175#6" to="5704192"/>
    <trip id="moto14" type="moto_motorcycle" depart="81.53" departLane="best" from="-5710046#0" to="784990959#2"/>
    <trip id="moto15" type="moto_motorcycle" depart="87.35" departLane="best" from="581458380#3" to="1051744784#5"/>
    <trip id="moto16" type="moto_motorcycle" depart="93.17" departLane="best" from="5701200#2" to="587038042#4"/>
    <trip id="moto17" type="moto_motorcycle" depart="99.00" departLane="best" from="226504943#0" to="-5709849#1"/>
    <trip id="moto18" type="moto_motorcycle" depart="104.82" departLane="best" from="-38901295#2" to="219973375#3"/>
    <trip id="moto19" type="moto_motorcycle" depart="110.65" departLane="best" from="864226826#3" to="571402041#0"/>
    <trip id="moto20" type="moto_motorcycle" depart="116.47" departLane="best" from="5704239#7" to="421155937#0"/>
    <trip id="moto21" type="moto_motorcycle" depart="122.29" departLane="best" from="-839130172#2" to="5702825#2"/>
    <trip id="moto22" type="moto_motorcycle" depart="128.12" departLane="best" from="1046778831#0" to="5702825#0"/>
    <trip id="moto23" type="moto_motorcycle" depart="133.94" departLane="best" from="5701774" to="-5705703#1"/>
    <trip id="moto24" type="moto_motorcycle" depart="139.76" departLane="best" from="5706959#2" to="421155943#0"/>
    <trip id="moto25" type="moto_motorcycle" depart="145.59" departLane="best" from="5707270#1" to="421155641"/>
    <trip id="moto26" type="moto_motorcycle" depart="151.41" departLane="best" from="-265505859" to="681046338"/>
    <trip id="moto27" type="moto_motorcycle" depart="157.23" departLane="best" from="581458828#1" to="5710052#1"/>
    <trip id="moto28" type="moto_motorcycle" depart="163.06" departLane="best" from="1051744786" to="-276656612"/>
    <trip id="moto29" type="moto_motorcycle" depart="168.88" departLane="best" from="-5701283#0" to="276629019#1"/>
    <trip id="moto30" type="moto_motorcycle" depart="174.70" departLane="best" from="5707025#11" to="-5703279#1"/>
    <trip id="moto31" type="moto_motorcycle" depart="180.53" departLane="best" from="502738505#0" to="5705805"/>
    <trip id="moto32" type="moto_motorcycle" depart="186.35" departLane="best" from="-5709497#3" to="1051744784#2"/>
    <trip id="moto33" type="moto_motorcycle" depart="192.17" departLane="best" from="-5703240#2" to="-5710052#1"/>
    <trip id="moto34" type="moto_motorcycle" depart="198.00" departLane="best" from="219916422#13" to="556607167#1"/>
    <trip id="moto35" type="moto_motorcycle" depart="203.82" departLane="best" from="-5710304#5" to="617887419"/>
    <trip id="moto36" type="moto_motorcycle" depart="209.64" departLane="best" from="-5710052#3" to="-5703557#3"/>
    <trip id="moto37" type="moto_motorcycle" depart="215.47" departLane="best" from="696730631#0" to="529837175#7"/>
    <trip id="moto38" type="moto_motorcycle" depart="221.29" departLane="best" from="276629019#2" to="5708309#16"/>
    <trip id="moto39" type="moto_motorcycle" depart="227.11" departLane="best" from="-5702235#2" to="265505860#4"/>
    <trip id="moto40" type="moto_motorcycle" depart="232.94" departLane="best" from="911137968#5" to="-5702821#0"/>
    <trip id="moto41" type="moto_motorcycle" depart="238.76" departLane="best" from="-5707025#9" to="266009765#10"/>
    <trip id="moto42" type="moto_motorcycle" depart="244.58" departLane="best" from="265505860#3" to="-851839770#7"/>
    <trip id="moto43" type="moto_motorcycle" depart="250.41" departLane="best" from="-661874993#1" to="661874982#5"/>
    <trip id="moto44" type="moto_motorcycle" depart="256.23" departLane="best" from="266009765#7" to="571402041#1"/>
    <trip id="moto45" type="moto_motorcycle" depart="262.05" departLane="best" from="529837172" to="-276629019#3"/>
    <trip id="moto46" type="moto_motorcycle" depart="267.88" departLane="best" from="990253489#1" to="5710072"/>
    <trip id="moto47" type="moto_motorcycle" depart="273.70" departLane="best" departSpeed="max" from="864226826#0" to="661874993#1"/>
    <trip id="moto48" type="moto_motorcycle" depart="279.52" departLane="best" from="5710304#0" to="-5705703#8"/>
    <trip id="moto49" type="moto_motorcycle" depart="285.35" departLane="best" from="226504945#0" to="-38901295#0"/>
    <trip id="moto50" type="moto_motorcycle" depart="291.17" departLane="best" from="529837175#5" to="5705703#13"/>
    <trip id="moto51" type="moto_motorcycle" depart="296.99" departLane="best" from="-5705703#2" to="1013096865#0"/>
    <trip id="moto52" type="moto_motorcycle" depart="302.82" departLane="best" from="502738506#2" to="5706196"/>
    <trip id="moto53" type="moto_motorcycle" depart="308.64" departLane="best" from="-276629019#7" to="541399250#2"/>
    <trip id="moto54" type="moto_motorcycle" depart="314.46" departLane="best" from="-541399250#2" to="-5706201"/>
    <trip id="moto55" type="moto_motorcycle" depart="320.29" departLane="best" from="5701420" to="5703557#1"/>
    <trip id="moto56" type="moto_motorcycle" depart="326.11" departLane="best" from="5701420" to="5701698#1"/>
    <trip id="moto57" type="moto_motorcycle" depart="331.94" departLane="best" from="421155940" to="681047398"/>
    <trip id="moto58" type="moto_motorcycle" depart="337.76" departLane="best" departSpeed="max" from="5703914" to="1017728623#2"/>
    <trip id="moto59" type="moto_motorcycle" depart="343.58" departLane="best" from="1068560484" to="5706458#1"/>
    <trip id="moto60" type="moto_motorcycle" depart="349.41" departLane="best" from="-41166510#6" to="266017347#0"/>
    <trip id="moto61" type="moto_motorcycle" depart="355.23" departLane="best" from="990253489#0" to="990248843"/>
    <trip id="moto62" type="moto_motorcycle" depart="361.05" departLane="best" from="581458830#2" to="581458830#0"/>
    <trip id="moto63" type="moto_motorcycle" depart="366.88" departLane="best" from="5702190#0" to="958141941"/>
    <trip id="moto64" type="moto_motorcycle" depart="372.70" departLane="best" departSpeed="max" from="5709730#0" to="1017728623#0"/>
    <trip id="moto65" type="moto_motorcycle" depart="378.52" departLane="best" from="-5703557#3" to="-5703240#10"/>
    <trip id="moto66" type="moto_motorcycle" depart="384.35" departLane="best" from="-5703067#2" to="469587911"/>
    <trip id="moto67" type="moto_motorcycle" depart="390.17" departLane="best" from="5703067#0" to="-798225401#5"/>
    <trip id="moto68" type="moto_motorcycle" depart="395.99" departLane="best" from="278903050" to="617887419"/>
    <trip id="moto69" type="moto_motorcycle" depart="401.82" departLane="best" from="5703067#3" to="-798225401#11"/>
    <trip id="moto70" type="moto_motorcycle" depart="407.64" departLane="best" from="5706137#6" to="421156315"/>
    <trip id="moto71" type="moto_motorcycle" depart="413.46" departLane="best" from="-541398094#2" to="581458830#4"/>
    <trip id="moto72" type="moto_motorcycle" depart="419.29" departLane="best" from="5710052#0" to="541399250#0"/>
    <trip id="moto73" type="moto_motorcycle" depart="425.11" departLane="best" from="5707784#0" to="581458830#6"/>
    <trip id="moto74" type="moto_motorcycle" depart="430.93" departLane="best" from="-5705703#2" to="681046534"/>
    <trip id="moto75" type="moto_motorcycle" depart="436.76" departLane="best" from="571062166#1" to="885214718#1"/>
    <trip id="moto76" type="moto_motorcycle" depart="442.58" departLane="best" from="5709250#3" to="581458830#2"/>
    <trip id="moto77" type="moto_motorcycle" depart="448.40" departLane="best" from="182690847#7" to="681046535"/>
    <trip id="moto78" type="moto_motorcycle" depart="454.23" departLane="best" from="5708309#12" to="-5703067#3"/>
    <trip id="moto79" type="moto_motorcycle" depart="460.05" departLane="best" from="5708309#4" to="-5710052#4"/>
    <trip id="moto80" type="moto_motorcycle" depart="465.87" departLane="best" from="-265505860#3" to="-5706501"/>
    <trip id="moto81" type="moto_motorcycle" depart="471.70" departLane="best" from="851839772#5" to="-851839770#8"/>
    <trip id="moto82" type="moto_motorcycle" depart="477.52" departLane="best" from="5703079#2" to="226504865#9"/>
    <trip id="moto83" type="moto_motorcycle" depart="483.34" departLane="best" from="911137968#0" to="421155936"/>
    <trip id="moto84" type="moto_motorcycle" depart="489.17" departLane="best" from="784990959#0" to="-5703240#10"/>
    <trip id="moto85" type="moto_motorcycle" depart="494.99" departLane="best" from="864226826#3" to="-5706137#2"/>
    <trip id="moto86" type="moto_motorcycle" depart="500.81" departLane="best" from="851839770#8" to="-798225401#8"/>
    <trip id="moto87" type="moto_motorcycle" depart="506.64" departLane="best" from="-784990959#1" to="5705452#2"/>
    <trip id="moto88" type="moto_motorcycle" depart="512.46" departLane="best" from="1059815512#0" to="5710304#1"/>
    <trip id="moto89" type="moto_motorcycle" depart="518.28" departLane="best" from="5705703#2" to="1017728623#2"/>
    <trip id="moto90" type="moto_motorcycle" depart="524.11" departLane="best" from="-5703279#0" to="265505852#0"/>
    <trip id="moto91" type="moto_motorcycle" depart="529.93" departLane="best" from="-226504865#0" to="-864226826#2"/>
    <trip id="moto92" type="moto_motorcycle" depart="535.76" departLane="best" from="5703240#8" to="276092522#3"/>
    <trip id="moto93" type="moto_motorcycle" depart="541.58" departLane="best" from="266009765#6" to="-5708985"/>
    <trip id="moto94" type="moto_motorcycle" depart="547.40" departLane="best" from="276629019#2" to="587038042#8"/>
    <trip id="moto95" type="moto_motorcycle" depart="553.23" departLane="best" from="5708309#5" to="-5705833#0"/>
    <trip id="moto96" type="moto_motorcycle" depart="559.05" departLane="best" from="-5701201#3" to="38901138-AddedOnRampEdge"/>
    <trip id="moto97" type="moto_motorcycle" depart="564.87" departLane="best" from="5709730#2" to="5706458#1"/>
    <trip id="moto98" type="moto_motorcycle" depart="570.70" departLane="best" from="5704174#0" to="-5710052#1"/>
    <trip id="moto99" type="moto_motorcycle" depart="576.52" departLane="best" from="-626535796#1" to="276152024#5"/>
    <trip id="moto100" type="moto_motorcycle" depart="582.34" departLane="best" from="5710304#1" to="-541398094#2"/>
    <trip id="moto101" type="moto_motorcycle" depart="588.17" departLane="best" from="265505856#0" to="5702190#1"/>
    <trip id="moto102" type="moto_motorcycle" depart="593.99" departLane="best" from="-5708763#0" to="5704518#2"/>
    <trip id="moto103" type="moto_motorcycle" depart="599.81" departLane="best" from="5703240#9" to="-226504865#17"/>
    <trip id="moto104" type="moto_motorcycle" depart="605.64" departLane="best" from="-5703067#1" to="265505857"/>
    <trip id="moto105" type="moto_motorcycle" depart="611.46" departLane="best" from="-5706137#7" to="851839770#3"/>
    <trip id="moto106" type="moto_motorcycle" depart="617.28" departLane="best" from="581521133#2" to="5701500#0"/>
    <trip id="moto107" type="moto_motorcycle" depart="623.11" departLane="best" from="5705703#19" to="350677691"/>
    <trip id="moto108" type="moto_motorcycle" depart="628.93" departLane="best" from="276629019#4" to="-784990959#3"/>
    <trip id="moto109" type="moto_motorcycle" depart="634.75" departLane="best" from="-626535798" to="5702821#1"/>
    <trip id="moto110" type="moto_motorcycle" depart="640.58" departLane="best" from="5702825#0" to="-851839770#3"/>
    <trip id="moto111" type="moto_motorcycle" depart="646.40" departLane="best" from="502738505#1" to="-5704731"/>
    <trip id="moto112" type="moto_motorcycle" depart="652.22" departLane="best" from="265505846#1" to="421155945#0"/>
    <trip id="moto113" type="moto_motorcycle" depart="658.05" departLane="best" departSpeed="max" from="5710358#0" to="5707025#5"/>
    <trip id="moto114" type="moto_motorcycle" depart="663.87" departLane="best" from="226504865#14" to="-226504865#17"/>
    <trip id="moto115" type="moto_motorcycle" depart="669.69" departLane="best" from="265505859" to="5706137#9"/>
    <trip id="moto116" type="moto_motorcycle" depart="675.52" departLane="best" from="502778877#1" to="5701205#1"/>
    <trip id="moto117" type="moto_motorcycle" depart="681.34" departLane="best" from="265509034#4" to="-265509034#4"/>
    <trip id="moto118" type="moto_motorcycle" depart="687.16" departLane="best" from="219916422#10" to="5703913#1"/>
    <trip id="moto119" type="moto_motorcycle" depart="692.99" departLane="best" from="-276629019#0" to="219972312#8"/>
    <trip id="moto120" type="moto_motorcycle" depart="698.81" departLane="best" from="5706959#1" to="219972312#8"/>
    <trip id="moto121" type="moto_motorcycle" depart="704.63" departLane="best" from="-696730631#0" to="-5701201#1"/>
    <trip id="moto122" type="moto_motorcycle" depart="710.46" departLane="best" from="-265505858" to="421155943#0"/>
    <trip id="moto123" type="moto_motorcycle" depart="716.28" departLane="best" from="990253489#1" to="219916422#3"/>
    <trip id="moto124" type="moto_motorcycle" depart="722.10" departLane="best" from="5703240#2" to="5708309#11"/>
    <trip id="moto125" type="moto_motorcycle" depart="727.93" departLane="best" from="541398094#1" to="-5709497#5"/>
    <trip id="moto126" type="moto_motorcycle" depart="733.75" departLane="best" from="-5703067#3" to="-265509034#0"/>
    <trip id="moto127" type="moto_motorcycle" depart="739.58" departLane="best" from="851839770#3" to="226504865#5"/>
    <trip id="moto128" type="moto_motorcycle" depart="745.40" departLane="best" from="5705703#13" to="-541398094#5"/>
    <trip id="moto129" type="moto_motorcycle" depart="751.22" departLane="best" from="5704518#5" to="5701704"/>
    <trip id="moto130" type="moto_motorcycle" depart="757.05" departLane="best" from="5710304#2" to="5701201#2"/>
    <trip id="moto131" type="moto_motorcycle" depart="762.87" departLane="best" from="-5703240#2" to="911137969"/>
    <trip id="moto132" type="moto_motorcycle" depart="768.69" departLane="best" from="41166510#1" to="182690847#5"/>
    <trip id="moto133" type="moto_motorcycle" depart="774.52" departLane="best" from="-5703067#0" to="851839770#6"/>
    <trip id="moto134" type="moto_motorcycle" depart="780.34" departLane="best" from="265509034#4" to="5705813#0"/>
    <trip id="moto135" type="moto_motorcycle" depart="786.16" departLane="best" from="276152024#6" to="5701420"/>
    <trip id="moto136" type="moto_motorcycle" depart="791.99" departLane="best" from="5705388#4" to="-851839770#5"/>
    <trip id="moto137" type="moto_motorcycle" depart="797.81" departLane="best" from="-5701283#0" to="5705703#15"/>
    <trip id="moto138" type="moto_motorcycle" depart="803.63" departLane="best" from="278903051" to="5706959#3"/>
    <trip id="moto139" type="moto_motorcycle" depart="809.46" departLane="best" from="5704518#5" to="5702944#1"/>
    <trip id="moto140" type="moto_motorcycle" depart="815.28" departLane="best" from="350677693#0" to="5708309#7"/>
    <trip id="moto141" type="moto_motorcycle" depart="821.10" departLane="best" from="421156314#3" to="265505857"/>
    <trip id="moto142" type="moto_motorcycle" depart="826.93" departLane="best" from="-676405887#1" to="-5703240#2"/>
    <trip id="moto143" type="moto_motorcycle" depart="832.75" departLane="best" from="-5707784#2" to="-5703240#16"/>
    <trip id="moto144" type="moto_motorcycle" depart="838.57" departLane="best" from="421156314#8" to="5707025#11"/>
    <trip id="moto145" type="moto_motorcycle" depart="844.40" departLane="best" from="276656614" to="5705703#3"/>
    <trip id="moto146" type="moto_motorcycle" depart="850.22" departLane="best" from="885214718#0" to="41166510#3"/>
    <trip id="moto147" type="moto_motorcycle" depart="856.04" departLane="best" from="-864226827#5" to="-5702825#0"/>
    <trip id="moto148" type="moto_motorcycle" depart="861.87" departLane="best" from="-5706458#1" to="-226504866#0"/>
    <trip id="moto149" type="moto_motorcycle" depart="867.69" departLane="best" from="421156314#6" to="-851839770#2"/>
    <trip id="moto150" type="moto_motorcycle" depart="873.51" departLane="best" from="864226827#5" to="469587911"/>
    <trip id="moto151" type="moto_motorcycle" depart="879.34" departLane="best" from="5705020#1" to="-5703240#9"/>
    <trip id="moto152" type="moto_motorcycle" depart="885.16" departLane="best" from="574690297" to="276629019#7"/>
    <trip id="moto153" type="moto_motorcycle" depart="890.98" departLane="best" from="581458379#0" to="529837176#3"/>
    <trip id="moto154" type="moto_motorcycle" depart="896.81" departLane="best" from="784990959#2" to="276152024#8"/>
    <trip id="moto155" type="moto_motorcycle" depart="902.63" departLane="best" from="5709837#0" to="226504866#0"/>
    <trip id="moto156" type="moto_motorcycle" depart="908.45" departLane="best" from="979574371#2" to="-5703240#13"/>
    <trip id="moto157" type="moto_motorcycle" depart="914.28" departLane="best" from="5707025#0" to="5701283#1"/>
    <trip id="moto158" type="moto_motorcycle" depart="920.10" departLane="best" from="5708309#17" to="-5710052#2"/>
    <trip id="moto159" type="moto_motorcycle" depart="925.92" departLane="best" from="421155940" to="266009765#4"/>
    <trip id="moto160" type="moto_motorcycle" depart="931.75" departLane="best" from="266009765#6" to="571062166#1"/>
    <trip id="moto161" type="moto_motorcycle" depart="937.57" departLane="best" from="5706137#5" to="798225401#3"/>
    <trip id="moto162" type="moto_motorcycle" depart="943.39" departLane="best" from="-5709849#1" to="-5708763#2"/>
    <trip id="moto163" type="moto_motorcycle" depart="949.22" departLane="best" from="-5710353" to="5705388#4"/>
    <trip id="moto164" type="moto_motorcycle" depart="955.04" departLane="best" from="5704518#1" to="661874982#6"/>
    <trip id="moto165" type="moto_motorcycle" depart="960.87" departLane="best" from="5703548#1" to="681047002"/>
    <trip id="moto166" type="moto_motorcycle" depart="966.69" departLane="best" from="265505861#1" to="421156314#0"/>
    <trip id="moto167" type="moto_motorcycle" depart="972.51" departLane="best" from="5703240#13" to="617887422#0"/>
    <trip id="moto168" type="moto_motorcycle" depart="978.34" departLane="best" from="5706329#2" to="529837175#5"/>
    <trip id="moto169" type="moto_motorcycle" depart="984.16" departLane="best" departSpeed="max" from="1010884495" to="-5703240#6"/>
    <trip id="moto170" type="moto_motorcycle" depart="989.98" departLane="best" from="5704518#3" to="5704731"/>
    <trip id="moto171" type="moto_motorcycle" depart="995.81" departLane="best" from="-266017339#1" to="265505860#5"/>
    <trip id="moto172" type="moto_motorcycle" depart="1001.63" departLane="best" from="5710052#2" to="529837176#5"/>
    <trip id="moto173" type="moto_motorcycle" depart="1007.45" departLane="best" from="798225401#9" to="990253489#1"/>
    <trip id="moto174" type="moto_motorcycle" depart="1013.28" departLane="best" from="276375613#1" to="5703079#0"/>
    <trip id="moto175" type="moto_motorcycle" depart="1019.10" departLane="best" from="5701201#0" to="5702770#2"/>
    <trip id="moto176" type="moto_motorcycle" depart="1024.92" departLane="best" from="219972311#1" to="126145167"/>
    <trip id="moto177" type="moto_motorcycle" depart="1030.75" departLane="best" from="276150622" to="1051744784#5"/>
    <trip id="moto178" type="moto_motorcycle" depart="1036.57" departLane="best" from="126145167" to="864226827#1"/>
    <trip id="moto179" type="moto_motorcycle" depart="1042.39" departLane="best" from="502738506#2" to="226504948"/>
    <trip id="moto180" type="moto_motorcycle" depart="1048.22" departLane="best" from="-5707025#6" to="219972311#12"/>
    <trip id="moto181" type="moto_motorcycle" depart="1054.04" departLane="best" from="5706500" to="5701698#9"/>
    <trip id="moto182" type="moto_motorcycle" depart="1059.86" departLane="best" from="5706886" to="-5707025#9"/>
    <trip id="moto183" type="moto_motorcycle" depart="1065.69" departLane="best" from="266009765#10" to="5704518#4"/>
    <trip id="moto184" type="moto_motorcycle" depart="1071.51" departLane="best" from="5701774" to="-5710304#5"/>
    <trip id="moto185" type="moto_motorcycle" depart="1077.33" departLane="best" from="529837175#0" to="219973375#6"/>
    <trip id="moto186" type="moto_motorcycle" depart="1083.16" departLane="best" from="581458830#0" to="574703082"/>
    <trip id="moto187" type="moto_motorcycle" depart="1088.98" departLane="best" from="265505856#1" to="681047398"/>
    <trip id="moto188" type="moto_motorcycle" depart="1094.80" departLane="best" from="-864226827#5" to="1013096865#2"/>
    <trip id="moto189" type="moto_motorcycle" depart="1100.63" departLane="best" from="502738505#0" to="219916422#1"/>
    <trip id="moto190" type="moto_motorcycle" depart="1106.45" departLane="best" from="529837175#0" to="421155945#1"/>
    <trip id="moto191" type="moto_motorcycle" depart="1112.27" departLane="best" from="276150622" to="1059815510"/>
    <trip id="moto192" type="moto_motorcycle" depart="1118.10" departLane="best" from="-5707025#7" to="5704518#3"/>
    <trip id="moto193" type="moto_motorcycle" depart="1123.92" departLane="best" from="5707121#2" to="-266017349"/>
    <trip id="moto194" type="moto_motorcycle" depart="1129.74" departLane="best" from="421155944" to="266017339#3"/>
    <trip id="moto195" type="moto_motorcycle" depart="1135.57" departLane="best" from="5703240#8" to="-5705703#11"/>
    <trip id="moto196" type="moto_motorcycle" depart="1141.39" departLane="best" from="219916422#13" to="5704464#2"/>
    <trip id="moto197" type="moto_motorcycle" depart="1147.21" departLane="best" from="5703240#2" to="5710304#5"/>
    <trip id="moto198" type="moto_motorcycle" depart="1153.04" departLane="best" from="226504865#11" to="1051744786"/>
    <trip id="moto199" type="moto_motorcycle" depart="1158.86" departLane="best" from="-5702821#0" to="5702770#1"/>
    <trip id="moto200" type="moto_motorcycle" depart="1164.69" departLane="best" from="541398094#3" to="5708309#6"/>
    <trip id="moto201" type="moto_motorcycle" depart="1170.51" departLane="best" departSpeed="max" from="574767493" to="5701698#1"/>
    <trip id="moto202" type="moto_motorcycle" depart="1176.33" departLane="best" from="-784990959#0" to="-696730631#0"/>
    <trip id="moto203" type="moto_motorcycle" depart="1182.16" departLane="best" from="587038042#6" to="5703557#4"/>
    <trip id="moto204" type="moto_motorcycle" depart="1187.98" departLane="best" from="219916732" to="556607167#0"/>
    <trip id="moto205" type="moto_motorcycle" depart="1193.80" departLane="best" from="-661874993#1" to="5710191#0"/>
    <trip id="moto206" type="moto_motorcycle" depart="1199.63" departLane="best" from="276656612" to="-5710304#3"/>
    <trip id="moto207" type="moto_motorcycle" depart="1205.45" departLane="best" departSpeed="max" from="-276295217" to="5701283#1"/>
    <trip id="moto208" type="moto_motorcycle" depart="1211.27" departLane="best" from="38901138" to="617853238#2"/>
    <trip id="moto209" type="moto_motorcycle" depart="1217.10" departLane="best" from="-885214718#0" to="5708763#3"/>
    <trip id="moto210" type="moto_motorcycle" depart="1222.92" departLane="best" from="5703067#2" to="5701698#3"/>
    <trip id="moto211" type="moto_motorcycle" depart="1228.74" departLane="best" from="502738505#1" to="864226827#4"/>
    <trip id="moto212" type="moto_motorcycle" depart="1234.57" departLane="best" from="421156314#2" to="626535796#1"/>
    <trip id="moto213" type="moto_motorcycle" depart="1240.39" departLane="best" from="5708926" to="5706137#8"/>
    <trip id="moto214" type="moto_motorcycle" depart="1246.21" departLane="best" from="219916422#14" to="-5703240#10"/>
    <trip id="moto215" type="moto_motorcycle" depart="1252.04" departLane="best" from="851839772#5" to="571062166#1"/>
    <trip id="moto216" type="moto_motorcycle" depart="1257.86" departLane="best" from="219972312#6" to="5708309#4"/>
    <trip id="moto217" type="moto_motorcycle" depart="1263.68" departLane="best" from="5704174#0" to="547157847#0"/>
    <trip id="moto218" type="moto_motorcycle" depart="1269.51" departLane="best" from="5709837#1" to="784990958"/>
    <trip id="moto219" type="moto_motorcycle" depart="1275.33" departLane="best" from="-5703067#3" to="-5710114#1"/>
    <trip id="moto220" type="moto_motorcycle" depart="1281.15" departLane="best" from="529837176#5" to="626535798"/>
    <trip id="moto221" type="moto_motorcycle" depart="1286.98" departLane="best" from="1051744784#3" to="276629019#9"/>
    <trip id="moto222" type="moto_motorcycle" depart="1292.80" departLane="best" from="-5704174#0" to="266009765#7"/>
    <trip id="moto223" type="moto_motorcycle" depart="1298.62" departLane="best" from="798225401#10" to="265505851#2"/>
    <trip id="moto224" type="moto_motorcycle" depart="1304.45" departLane="best" from="798225402#0" to="-266009765#11"/>
    <trip id="moto225" type="moto_motorcycle" depart="1310.27" departLane="best" from="219972311#7" to="226504865#7"/>
    <trip id="moto226" type="moto_motorcycle" depart="1316.09" departLane="best" from="5710191#1" to="266017339#1"/>
    <trip id="moto227" type="moto_motorcycle" depart="1321.92" departLane="best" from="5701500#0" to="-265505860#1"/>
    <trip id="moto228" type="moto_motorcycle" depart="1327.74" departLane="best" from="-5703240#8" to="529837173"/>
    <trip id="moto229" type="moto_motorcycle" depart="1333.56" departLane="best" from="-41166510#2" to="5707025#4"/>
    <trip id="moto230" type="moto_motorcycle" depart="1339.39" departLane="best" from="-5705703#11" to="587038042#7"/>
    <trip id="moto231" type="moto_motorcycle" depart="1345.21" departLane="best" from="-5705609#3" to="-5703545#2"/>
    <trip id="moto232" type="moto_motorcycle" depart="1351.03" departLane="best" from="-676405887#1" to="-5706136#0"/>
    <trip id="moto233" type="moto_motorcycle" depart="1356.86" departLane="best" from="5703548#1" to="-265509034#0"/>
    <trip id="moto234" type="moto_motorcycle" depart="1362.68" departLane="best" departSpeed="max" from="-581458379#1" to="1059815512#0"/>
    <trip id="moto235" type="moto_motorcycle" depart="1368.51" departLane="best" from="5706137#6" to="41166510#5"/>
    <trip id="moto236" type="moto_motorcycle" depart="1374.33" departLane="best" from="421155936" to="266017339#4"/>
    <trip id="moto237" type="moto_motorcycle" depart="1380.15" departLane="best" from="-5701200#1" to="5701291#1"/>
    <trip id="moto238" type="moto_motorcycle" depart="1385.98" departLane="best" from="5702944#0" to="421156314#5"/>
    <trip id="moto239" type="moto_motorcycle" depart="1391.80" departLane="best" from="421156314#2" to="266009765#7"/>